@<TRIPOS>MOLECULE
*****
 110 113 0 0 0
SMALL
GASTEIGER
****
Schrodinger Suite 2019-4.
@<TRIPOS>ATOM
      1 C         -17.3208   -6.9159  -24.7320 C.3     1  UNL1       -0.0653
      2 C         -17.8862   -5.5029  -24.8411 C.3     1  UNL1       -0.0558
      3 C         -19.3746   -5.4882  -25.0763 C.3     1  UNL1       -0.0512
      4 C         -19.9654   -4.0882  -25.0513 C.3     1  UNL1       -0.0271
      5 C         -21.4339   -4.1491  -25.4953 C.3     1  UNL1        0.0907
      6 N         -21.5115   -3.8463  -26.9121 N.am    1  UNL1       -0.3036
      7 C         -22.5760   -4.1154  -27.6729 C.2     1  UNL1        0.2344
      8 O         -23.6011   -4.6484  -27.2404 O.2     1  UNL1       -0.2737
      9 C         -22.4388   -3.7456  -29.1502 C.3     1  UNL1        0.1058
     10 C         -23.7947   -3.2547  -29.6649 C.3     1  UNL1       -0.0037
     11 C         -24.3220   -4.3050  -30.5737 C.3     1  UNL1       -0.0142
     12 C         -23.2821   -5.4030  -30.7075 C.3     1  UNL1        0.0192
     13 N         -22.1413   -4.9812  -29.8961 N.am    1  UNL1       -0.2878
     14 C         -20.9335   -5.5926  -29.8705 C.2     1  UNL1        0.2371
     15 O         -19.9804   -5.0979  -29.2617 O.2     1  UNL1       -0.2735
     16 C         -20.7303   -6.9583  -30.5747 C.3     1  UNL1        0.1058
     17 N         -19.9423   -7.7658  -29.6269 N.am    1  UNL1       -0.2876
     18 C         -20.3725   -8.8675  -28.9941 C.2     1  UNL1        0.3007
     19 O         -21.4166   -9.4499  -29.2823 O.2     1  UNL1       -0.2528
     20 N         -19.5751   -9.2133  -27.9658 N.am    1  UNL1       -0.2923
     21 C         -19.8067  -10.2601  -26.9486 C.3     1  UNL1        0.0553
     22 C         -21.2029  -10.1013  -26.2663 C.3     1  UNL1        0.0875
     23 S         -21.4727   -8.4540  -25.4564 S.O2    1  UNL1       -0.0242
     24 O         -20.6322   -8.4021  -24.2498 O.2     1  UNL1       -0.1738
     25 O         -21.3553   -7.4078  -26.4808 O.2     1  UNL1       -0.1738
     26 C         -23.2355   -8.4480  -24.9038 C.3     1  UNL1        0.0795
     27 C         -23.4675   -9.6022  -23.9141 C.3     1  UNL1       -0.0405
     28 C         -24.1786   -8.5698  -26.1143 C.3     1  UNL1       -0.0405
     29 C         -23.4604   -7.0844  -24.2277 C.3     1  UNL1       -0.0405
     30 C         -19.7141  -11.6663  -27.5998 C.3     1  UNL1       -0.0300
     31 C         -18.3186  -11.9804  -28.1740 C.3     1  UNL1       -0.0511
     32 C         -17.2280  -11.8458  -27.1029 C.3     1  UNL1       -0.0529
     33 C         -17.2840  -10.4620  -26.4524 C.3     1  UNL1       -0.0511
     34 C         -18.6822  -10.1722  -25.8850 C.3     1  UNL1       -0.0300
     35 C         -20.0129   -6.8895  -31.9776 C.3     1  UNL1       -0.0108
     36 C         -18.7245   -6.0589  -31.9304 C.3     1  UNL1       -0.0579
     37 C         -20.8809   -6.2497  -33.0741 C.3     1  UNL1       -0.0579
     38 C         -19.7154   -8.3240  -32.4675 C.3     1  UNL1       -0.0579
     39 C         -24.0803   -2.9032  -31.1050 C.3     1  UNL1       -0.0250
     40 C         -25.2785   -2.0337  -31.4236 C.3     1  UNL1       -0.0592
     41 C         -22.9262   -2.5726  -32.0396 C.3     1  UNL1       -0.0592
     42 C         -22.2761   -3.1675  -24.6962 C.2     1  UNL1        0.2371
     43 O         -22.6095   -2.0569  -25.1022 O.2     1  UNL1       -0.2852
     44 C         -22.7405   -3.6589  -23.3503 C.2     1  UNL1        0.2817
     45 O         -22.0670   -4.3682  -22.6030 O.2     1  UNL1       -0.2670
     46 N         -23.9662   -3.2110  -23.1131 N.am    1  UNL1       -0.3061
     47 C         -24.6746   -3.5066  -21.9488 C.3     1  UNL1        0.0236
     48 C         -25.5719   -2.4374  -21.4428 C.3     1  UNL1       -0.0328
     49 C         -24.2832   -2.7747  -20.7105 C.3     1  UNL1       -0.0328
     50 H         -16.2697   -6.8892  -24.4497 H       1  UNL1        0.0230
     51 H         -17.8486   -7.5027  -23.9795 H       1  UNL1        0.0230
     52 H         -17.3916   -7.4236  -25.6928 H       1  UNL1        0.0230
     53 H         -17.4449   -5.0059  -25.7012 H       1  UNL1        0.0263
     54 H         -17.6392   -4.9269  -23.9498 H       1  UNL1        0.0263
     55 H         -19.8742   -6.0890  -24.3200 H       1  UNL1        0.0266
     56 H         -19.5464   -5.9372  -26.0523 H       1  UNL1        0.0266
     57 H         -19.3856   -3.4308  -25.7013 H       1  UNL1        0.0287
     58 H         -19.8530   -3.6905  -24.0409 H       1  UNL1        0.0287
     59 H         -21.8229   -5.1514  -25.3333 H       1  UNL1        0.0582
     60 H         -20.7085   -3.4121  -27.3454 H       1  UNL1        0.1495
     61 H         -21.6718   -2.9861  -29.3028 H       1  UNL1        0.0600
     62 H         -24.4701   -2.8209  -28.9290 H       1  UNL1        0.0332
     63 H         -25.3447   -4.6354  -30.4272 H       1  UNL1        0.0325
     64 H         -23.0152   -5.5231  -31.7470 H       1  UNL1        0.0468
     65 H         -23.6754   -6.3446  -30.3262 H       1  UNL1        0.0468
     66 H         -21.6978   -7.4373  -30.7192 H       1  UNL1        0.0600
     67 H         -19.0678   -7.3619  -29.3272 H       1  UNL1        0.1510
     68 H         -18.7440   -8.6576  -27.8256 H       1  UNL1        0.1508
     69 H         -21.3267  -10.8637  -25.4977 H       1  UNL1        0.0521
     70 H         -22.0031  -10.2594  -26.9850 H       1  UNL1        0.0521
     71 H         -24.4554   -9.5385  -23.4578 H       1  UNL1        0.0251
     72 H         -23.4010  -10.5707  -24.4097 H       1  UNL1        0.0251
     73 H         -22.7324   -9.6009  -23.1123 H       1  UNL1        0.0251
     74 H         -25.2189   -8.4503  -25.8109 H       1  UNL1        0.0251
     75 H         -23.9680   -7.8101  -26.8682 H       1  UNL1        0.0251
     76 H         -24.0960   -9.5415  -26.5991 H       1  UNL1        0.0251
     77 H         -24.2492   -7.1237  -23.4841 H       1  UNL1        0.0251
     78 H         -22.5608   -6.7396  -23.7231 H       1  UNL1        0.0251
     79 H         -23.7263   -6.3158  -24.9529 H       1  UNL1        0.0251
     80 H         -20.4648  -11.7793  -28.3819 H       1  UNL1        0.0286
     81 H         -19.9544  -12.4218  -26.8506 H       1  UNL1        0.0286
     82 H         -18.1021  -11.3117  -29.0077 H       1  UNL1        0.0266
     83 H         -18.3079  -12.9896  -28.5853 H       1  UNL1        0.0266
     84 H         -16.2449  -12.0104  -27.5433 H       1  UNL1        0.0265
     85 H         -17.3615  -12.6156  -26.3424 H       1  UNL1        0.0265
     86 H         -17.0302   -9.7101  -27.1991 H       1  UNL1        0.0266
     87 H         -16.5348  -10.3869  -25.6634 H       1  UNL1        0.0266
     88 H         -18.8851  -10.8704  -25.0713 H       1  UNL1        0.0286
     89 H         -18.6671   -9.1876  -25.4334 H       1  UNL1        0.0286
     90 H         -17.9911   -6.3946  -32.6649 H       1  UNL1        0.0236
     91 H         -18.9105   -5.0088  -32.1373 H       1  UNL1        0.0236
     92 H         -18.2909   -6.0979  -30.9387 H       1  UNL1        0.0236
     93 H         -20.3464   -6.2034  -34.0240 H       1  UNL1        0.0236
     94 H         -21.7672   -6.8480  -33.2538 H       1  UNL1        0.0236
     95 H         -21.1784   -5.2304  -32.8355 H       1  UNL1        0.0236
     96 H         -19.2323   -8.3268  -33.4454 H       1  UNL1        0.0236
     97 H         -19.0658   -8.8678  -31.7851 H       1  UNL1        0.0236
     98 H         -20.6323   -8.9059  -32.5582 H       1  UNL1        0.0236
     99 H         -25.6543   -2.2607  -32.4203 H       1  UNL1        0.0235
    100 H         -26.0839   -2.2064  -30.7118 H       1  UNL1        0.0235
    101 H         -25.0107   -0.9797  -31.3756 H       1  UNL1        0.0235
    102 H         -23.2221   -2.7242  -33.0754 H       1  UNL1        0.0235
    103 H         -22.6220   -1.5363  -31.9030 H       1  UNL1        0.0235
    104 H         -22.0522   -3.1915  -31.8516 H       1  UNL1        0.0235
    105 H         -24.4124   -2.6280  -23.8075 H       1  UNL1        0.1494
    106 H         -25.0254   -4.5309  -21.8372 H       1  UNL1        0.0498
    107 H         -26.5061   -2.7974  -21.0405 H       1  UNL1        0.0284
    108 H         -25.6403   -1.5415  -22.0524 H       1  UNL1        0.0284
    109 H         -23.4052   -2.1383  -20.7836 H       1  UNL1        0.0284
    110 H         -24.3414   -3.3558  -19.7999 H       1  UNL1        0.0284
@<TRIPOS>BOND
     1     1     2    1
     2     1    50    1
     3     1    51    1
     4     1    52    1
     5     2     3    1
     6     2    53    1
     7     2    54    1
     8     3     4    1
     9     3    55    1
    10     3    56    1
    11     4     5    1
    12     4    57    1
    13     4    58    1
    14     5     6    1
    15     5    42    1
    16     5    59    1
    17     6     7   am
    18     6    60    1
    19     7     8    2
    20     7     9    1
    21     9    13    1
    22     9    10    1
    23     9    61    1
    24    10    39    1
    25    10    11    1
    26    10    62    1
    27    11    12    1
    28    11    39    1
    29    11    63    1
    30    12    13    1
    31    12    64    1
    32    12    65    1
    33    13    14   am
    34    14    15    2
    35    14    16    1
    36    16    17    1
    37    16    35    1
    38    16    66    1
    39    17    18   am
    40    17    67    1
    41    18    19    2
    42    18    20   am
    43    20    21    1
    44    20    68    1
    45    21    34    1
    46    21    22    1
    47    21    30    1
    48    22    23    1
    49    22    69    1
    50    22    70    1
    51    23    24    2
    52    23    25    2
    53    23    26    1
    54    26    27    1
    55    26    28    1
    56    26    29    1
    57    27    71    1
    58    27    72    1
    59    27    73    1
    60    28    74    1
    61    28    75    1
    62    28    76    1
    63    29    77    1
    64    29    78    1
    65    29    79    1
    66    30    31    1
    67    30    80    1
    68    30    81    1
    69    31    32    1
    70    31    82    1
    71    31    83    1
    72    32    33    1
    73    32    84    1
    74    32    85    1
    75    33    34    1
    76    33    86    1
    77    33    87    1
    78    34    88    1
    79    34    89    1
    80    35    36    1
    81    35    37    1
    82    35    38    1
    83    36    90    1
    84    36    91    1
    85    36    92    1
    86    37    93    1
    87    37    94    1
    88    37    95    1
    89    38    96    1
    90    38    97    1
    91    38    98    1
    92    39    40    1
    93    39    41    1
    94    40    99    1
    95    40   100    1
    96    40   101    1
    97    41   102    1
    98    41   103    1
    99    41   104    1
   100    42    43    2
   101    42    44    1
   102    44    45    2
   103    44    46   am
   104    46    47    1
   105    46   105    1
   106    47    49    1
   107    47    48    1
   108    47   106    1
   109    48    49    1
   110    48   107    1
   111    48   108    1
   112    49   109    1
   113    49   110    1
