
                    3D
 Schrodinger Suite 2019-4.
110113  0  0  1  0            999 V2000
  -17.3208   -6.9159  -24.7320 C   0  0  0  0  0  0
  -17.8862   -5.5029  -24.8411 C   0  0  0  0  0  0
  -19.3746   -5.4882  -25.0763 C   0  0  0  0  0  0
  -19.9654   -4.0882  -25.0513 C   0  0  0  0  0  0
  -21.4339   -4.1491  -25.4953 C   0  0  2  0  0  0
  -21.5115   -3.8463  -26.9121 N   0  0  0  0  0  0
  -22.5760   -4.1154  -27.6729 C   0  0  0  0  0  0
  -23.6011   -4.6484  -27.2404 O   0  0  0  0  0  0
  -22.4388   -3.7456  -29.1502 C   0  0  2  0  0  0
  -23.7947   -3.2547  -29.6649 C   0  0  2  0  0  0
  -24.3220   -4.3050  -30.5737 C   0  0  2  0  0  0
  -23.2821   -5.4030  -30.7075 C   0  0  0  0  0  0
  -22.1413   -4.9812  -29.8961 N   0  0  0  0  0  0
  -20.9335   -5.5926  -29.8705 C   0  0  0  0  0  0
  -19.9804   -5.0979  -29.2617 O   0  0  0  0  0  0
  -20.7303   -6.9583  -30.5747 C   0  0  2  0  0  0
  -19.9423   -7.7658  -29.6269 N   0  0  0  0  0  0
  -20.3725   -8.8675  -28.9941 C   0  0  0  0  0  0
  -21.4166   -9.4499  -29.2823 O   0  0  0  0  0  0
  -19.5751   -9.2133  -27.9658 N   0  0  0  0  0  0
  -19.8067  -10.2601  -26.9486 C   0  0  0  0  0  0
  -21.2029  -10.1013  -26.2663 C   0  0  0  0  0  0
  -21.4727   -8.4540  -25.4564 S   0  0  0  0  0  0
  -20.6322   -8.4021  -24.2498 O   0  0  0  0  0  0
  -21.3553   -7.4078  -26.4808 O   0  0  0  0  0  0
  -23.2355   -8.4480  -24.9038 C   0  0  0  0  0  0
  -23.4675   -9.6022  -23.9141 C   0  0  0  0  0  0
  -24.1786   -8.5698  -26.1143 C   0  0  0  0  0  0
  -23.4604   -7.0844  -24.2277 C   0  0  0  0  0  0
  -19.7141  -11.6663  -27.5998 C   0  0  0  0  0  0
  -18.3186  -11.9804  -28.1740 C   0  0  0  0  0  0
  -17.2280  -11.8458  -27.1029 C   0  0  0  0  0  0
  -17.2840  -10.4620  -26.4524 C   0  0  0  0  0  0
  -18.6822  -10.1722  -25.8850 C   0  0  0  0  0  0
  -20.0129   -6.8895  -31.9776 C   0  0  0  0  0  0
  -18.7245   -6.0589  -31.9304 C   0  0  0  0  0  0
  -20.8809   -6.2497  -33.0741 C   0  0  0  0  0  0
  -19.7154   -8.3240  -32.4675 C   0  0  0  0  0  0
  -24.0803   -2.9032  -31.1050 C   0  0  0  0  0  0
  -25.2785   -2.0337  -31.4236 C   0  0  0  0  0  0
  -22.9262   -2.5726  -32.0396 C   0  0  0  0  0  0
  -22.2761   -3.1675  -24.6962 C   0  0  0  0  0  0
  -22.6095   -2.0569  -25.1022 O   0  0  0  0  0  0
  -22.7405   -3.6589  -23.3503 C   0  0  0  0  0  0
  -22.0670   -4.3682  -22.6030 O   0  0  0  0  0  0
  -23.9662   -3.2110  -23.1131 N   0  0  0  0  0  0
  -24.6746   -3.5066  -21.9488 C   0  0  0  0  0  0
  -25.5719   -2.4374  -21.4428 C   0  0  0  0  0  0
  -24.2832   -2.7747  -20.7105 C   0  0  0  0  0  0
  -16.2697   -6.8892  -24.4497 H   0  0  0  0  0  0
  -17.8486   -7.5027  -23.9795 H   0  0  0  0  0  0
  -17.3916   -7.4236  -25.6928 H   0  0  0  0  0  0
  -17.4449   -5.0059  -25.7012 H   0  0  0  0  0  0
  -17.6392   -4.9269  -23.9498 H   0  0  0  0  0  0
  -19.8742   -6.0890  -24.3200 H   0  0  0  0  0  0
  -19.5464   -5.9372  -26.0523 H   0  0  0  0  0  0
  -19.3856   -3.4308  -25.7013 H   0  0  0  0  0  0
  -19.8530   -3.6905  -24.0409 H   0  0  0  0  0  0
  -21.8229   -5.1514  -25.3333 H   0  0  0  0  0  0
  -20.7085   -3.4121  -27.3454 H   0  0  0  0  0  0
  -21.6718   -2.9861  -29.3028 H   0  0  0  0  0  0
  -24.4701   -2.8209  -28.9290 H   0  0  0  0  0  0
  -25.3447   -4.6354  -30.4272 H   0  0  0  0  0  0
  -23.0152   -5.5231  -31.7470 H   0  0  0  0  0  0
  -23.6754   -6.3446  -30.3262 H   0  0  0  0  0  0
  -21.6978   -7.4373  -30.7192 H   0  0  0  0  0  0
  -19.0678   -7.3619  -29.3272 H   0  0  0  0  0  0
  -18.7440   -8.6576  -27.8256 H   0  0  0  0  0  0
  -21.3267  -10.8637  -25.4977 H   0  0  0  0  0  0
  -22.0031  -10.2594  -26.9850 H   0  0  0  0  0  0
  -24.4554   -9.5385  -23.4578 H   0  0  0  0  0  0
  -23.4010  -10.5707  -24.4097 H   0  0  0  0  0  0
  -22.7324   -9.6009  -23.1123 H   0  0  0  0  0  0
  -25.2189   -8.4503  -25.8109 H   0  0  0  0  0  0
  -23.9680   -7.8101  -26.8682 H   0  0  0  0  0  0
  -24.0960   -9.5415  -26.5991 H   0  0  0  0  0  0
  -24.2492   -7.1237  -23.4841 H   0  0  0  0  0  0
  -22.5608   -6.7396  -23.7231 H   0  0  0  0  0  0
  -23.7263   -6.3158  -24.9529 H   0  0  0  0  0  0
  -20.4648  -11.7793  -28.3819 H   0  0  0  0  0  0
  -19.9544  -12.4218  -26.8506 H   0  0  0  0  0  0
  -18.1021  -11.3117  -29.0077 H   0  0  0  0  0  0
  -18.3079  -12.9896  -28.5853 H   0  0  0  0  0  0
  -16.2449  -12.0104  -27.5433 H   0  0  0  0  0  0
  -17.3615  -12.6156  -26.3424 H   0  0  0  0  0  0
  -17.0302   -9.7101  -27.1991 H   0  0  0  0  0  0
  -16.5348  -10.3869  -25.6634 H   0  0  0  0  0  0
  -18.8851  -10.8704  -25.0713 H   0  0  0  0  0  0
  -18.6671   -9.1876  -25.4334 H   0  0  0  0  0  0
  -17.9911   -6.3946  -32.6649 H   0  0  0  0  0  0
  -18.9105   -5.0088  -32.1373 H   0  0  0  0  0  0
  -18.2909   -6.0979  -30.9387 H   0  0  0  0  0  0
  -20.3464   -6.2034  -34.0240 H   0  0  0  0  0  0
  -21.7672   -6.8480  -33.2538 H   0  0  0  0  0  0
  -21.1784   -5.2304  -32.8355 H   0  0  0  0  0  0
  -19.2323   -8.3268  -33.4454 H   0  0  0  0  0  0
  -19.0658   -8.8678  -31.7851 H   0  0  0  0  0  0
  -20.6323   -8.9059  -32.5582 H   0  0  0  0  0  0
  -25.6543   -2.2607  -32.4203 H   0  0  0  0  0  0
  -26.0839   -2.2064  -30.7118 H   0  0  0  0  0  0
  -25.0107   -0.9797  -31.3756 H   0  0  0  0  0  0
  -23.2221   -2.7242  -33.0754 H   0  0  0  0  0  0
  -22.6220   -1.5363  -31.9030 H   0  0  0  0  0  0
  -22.0522   -3.1915  -31.8516 H   0  0  0  0  0  0
  -24.4124   -2.6280  -23.8075 H   0  0  0  0  0  0
  -25.0254   -4.5309  -21.8372 H   0  0  0  0  0  0
  -26.5061   -2.7974  -21.0405 H   0  0  0  0  0  0
  -25.6403   -1.5415  -22.0524 H   0  0  0  0  0  0
  -23.4052   -2.1383  -20.7836 H   0  0  0  0  0  0
  -24.3414   -3.3558  -19.7999 H   0  0  0  0  0  0
  1  2  1  0  0  0
  1 50  1  0  0  0
  1 51  1  0  0  0
  1 52  1  0  0  0
  2  3  1  0  0  0
  2 53  1  0  0  0
  2 54  1  0  0  0
  3  4  1  0  0  0
  3 55  1  0  0  0
  3 56  1  0  0  0
  4  5  1  0  0  0
  4 57  1  0  0  0
  4 58  1  0  0  0
  5  6  1  0  0  0
  5 42  1  0  0  0
  5 59  1  0  0  0
  6  7  1  0  0  0
  6 60  1  0  0  0
  7  8  2  0  0  0
  7  9  1  0  0  0
  9 13  1  0  0  0
  9 10  1  0  0  0
  9 61  1  0  0  0
 10 39  1  0  0  0
 10 11  1  0  0  0
 10 62  1  0  0  0
 11 12  1  0  0  0
 11 39  1  0  0  0
 11 63  1  0  0  0
 12 13  1  0  0  0
 12 64  1  0  0  0
 12 65  1  0  0  0
 13 14  1  0  0  0
 14 15  2  0  0  0
 14 16  1  0  0  0
 16 17  1  0  0  0
 16 35  1  0  0  0
 16 66  1  0  0  0
 17 18  1  0  0  0
 17 67  1  0  0  0
 18 19  2  0  0  0
 18 20  1  0  0  0
 20 21  1  0  0  0
 20 68  1  0  0  0
 21 34  1  0  0  0
 21 22  1  0  0  0
 21 30  1  0  0  0
 22 23  1  0  0  0
 22 69  1  0  0  0
 22 70  1  0  0  0
 23 24  2  0  0  0
 23 25  2  0  0  0
 23 26  1  0  0  0
 26 27  1  0  0  0
 26 28  1  0  0  0
 26 29  1  0  0  0
 27 71  1  0  0  0
 27 72  1  0  0  0
 27 73  1  0  0  0
 28 74  1  0  0  0
 28 75  1  0  0  0
 28 76  1  0  0  0
 29 77  1  0  0  0
 29 78  1  0  0  0
 29 79  1  0  0  0
 30 31  1  0  0  0
 30 80  1  0  0  0
 30 81  1  0  0  0
 31 32  1  0  0  0
 31 82  1  0  0  0
 31 83  1  0  0  0
 32 33  1  0  0  0
 32 84  1  0  0  0
 32 85  1  0  0  0
 33 34  1  0  0  0
 33 86  1  0  0  0
 33 87  1  0  0  0
 34 88  1  0  0  0
 34 89  1  0  0  0
 35 36  1  0  0  0
 35 37  1  0  0  0
 35 38  1  0  0  0
 36 90  1  0  0  0
 36 91  1  0  0  0
 36 92  1  0  0  0
 37 93  1  0  0  0
 37 94  1  0  0  0
 37 95  1  0  0  0
 38 96  1  0  0  0
 38 97  1  0  0  0
 38 98  1  0  0  0
 39 40  1  0  0  0
 39 41  1  0  0  0
 40 99  1  0  0  0
 40100  1  0  0  0
 40101  1  0  0  0
 41102  1  0  0  0
 41103  1  0  0  0
 41104  1  0  0  0
 42 43  2  0  0  0
 42 44  1  0  0  0
 44 45  2  0  0  0
 44 46  1  0  0  0
 46 47  1  0  0  0
 46105  1  0  0  0
 47 49  1  0  0  0
 47 48  1  0  0  0
 47106  1  0  0  0
 48 49  1  0  0  0
 48107  1  0  0  0
 48108  1  0  0  0
 49109  1  0  0  0
 49110  1  0  0  0
M  END
$$$$
