@<TRIPOS>MOLECULE
*****
 69 71 0 0 0
SMALL
GASTEIGER
****
Schrodinger Suite 2019-4.
@<TRIPOS>ATOM
      1 C         -22.2746   -2.0722  -30.7570 C.3     1  UNL1       -0.0626
      2 C         -23.3610   -2.9975  -30.1849 C.3     1  UNL1       -0.0446
      3 C         -24.7310   -2.2965  -30.1840 C.3     1  UNL1       -0.0626
      4 C         -23.0079   -3.5562  -28.7813 C.3     1  UNL1       -0.0235
      5 C         -21.6430   -4.2923  -28.6677 C.3     1  UNL1        0.1027
      6 N         -21.5840   -5.3589  -29.6830 N.am    1  UNL1       -0.2698
      7 C         -20.3755   -5.9205  -30.0663 C.2     1  UNL1        0.4014
      8 O         -19.2544   -5.5361  -29.7251 O.2     1  UNL1       -0.2264
      9 O         -20.6390   -6.9648  -30.8910 O.3     1  UNL1       -0.4447
     10 C         -19.6678   -7.6583  -31.6881 C.3     1  UNL1        0.1068
     11 C         -18.5270   -8.2851  -30.8508 C.3     1  UNL1       -0.0253
     12 C         -19.1232   -6.7078  -32.7749 C.3     1  UNL1       -0.0253
     13 C         -20.4681   -8.7903  -32.3599 C.3     1  UNL1       -0.0253
     14 C         -21.4479   -4.8750  -27.2460 C.2     1  UNL1        0.2340
     15 O         -22.0013   -5.9359  -26.9473 O.2     1  UNL1       -0.2738
     16 N         -20.6685   -4.1813  -26.3980 N.am    1  UNL1       -0.3037
     17 C         -20.2504   -4.6600  -25.0686 C.3     1  UNL1        0.0888
     18 C         -18.7243   -4.5751  -24.8633 C.3     1  UNL1       -0.0160
     19 C         -17.9223   -5.6433  -25.6483 C.3     1  UNL1        0.0390
     20 C         -18.1388   -7.0957  -25.2451 C.3     1  UNL1       -0.0262
     21 C         -16.7954   -7.7484  -25.5354 C.3     1  UNL1        0.0123
     22 N         -15.8599   -6.6391  -25.4061 N.am    1  UNL1       -0.3151
     23 C         -16.4222   -5.4212  -25.4466 C.2     1  UNL1        0.2162
     24 O         -15.8589   -4.3360  -25.4060 O.2     1  UNL1       -0.2755
     25 C         -21.0135   -3.8003  -24.0638 C.2     1  UNL1        0.2079
     26 O         -20.5247   -2.7437  -23.6528 O.2     1  UNL1       -0.2879
     27 C         -22.3361   -4.2241  -23.5960 C.ar    1  UNL1        0.1465
     28 N         -23.2502   -3.4258  -23.1110 N.ar    1  UNL1       -0.2360
     29 C         -24.3723   -4.1000  -22.7470 C.ar    1  UNL1        0.0790
     30 C         -25.5190   -3.5089  -22.2060 C.ar    1  UNL1       -0.0352
     31 C         -26.5823   -4.3362  -21.8460 C.ar    1  UNL1       -0.0597
     32 C         -26.5339   -5.7147  -22.0407 C.ar    1  UNL1       -0.0606
     33 C         -25.4085   -6.3259  -22.5932 C.ar    1  UNL1       -0.0459
     34 C         -24.3267   -5.5052  -22.9403 C.ar    1  UNL1        0.0396
     35 S         -22.7761   -5.9288  -23.6322 S.2     1  UNL1       -0.0643
     36 H         -21.4647   -2.6497  -31.2055 H       1  UNL1        0.0232
     37 H         -22.6726   -1.4150  -31.5316 H       1  UNL1        0.0232
     38 H         -21.8591   -1.4344  -29.9778 H       1  UNL1        0.0232
     39 H         -23.4524   -3.8455  -30.8658 H       1  UNL1        0.0296
     40 H         -25.3218   -2.5418  -29.3005 H       1  UNL1        0.0232
     41 H         -24.6345   -1.2093  -30.2113 H       1  UNL1        0.0232
     42 H         -25.3113   -2.5902  -31.0567 H       1  UNL1        0.0232
     43 H         -23.8127   -4.2242  -28.4652 H       1  UNL1        0.0290
     44 H         -23.0218   -2.7268  -28.0707 H       1  UNL1        0.0290
     45 H         -20.8598   -3.5575  -28.8696 H       1  UNL1        0.0596
     46 H         -22.4408   -5.8001  -29.9797 H       1  UNL1        0.1528
     47 H         -17.8786   -8.9059  -31.4695 H       1  UNL1        0.0268
     48 H         -17.8884   -7.5362  -30.3822 H       1  UNL1        0.0268
     49 H         -18.9260   -8.9182  -30.0589 H       1  UNL1        0.0268
     50 H         -18.3843   -7.1973  -33.4111 H       1  UNL1        0.0268
     51 H         -19.9372   -6.3508  -33.4033 H       1  UNL1        0.0268
     52 H         -18.6593   -5.8201  -32.3454 H       1  UNL1        0.0268
     53 H         -19.8376   -9.3954  -33.0127 H       1  UNL1        0.0268
     54 H         -20.9117   -9.4566  -31.6185 H       1  UNL1        0.0268
     55 H         -21.2850   -8.3969  -32.9659 H       1  UNL1        0.0268
     56 H         -20.2551   -3.3151  -26.7160 H       1  UNL1        0.1495
     57 H         -20.5032   -5.7121  -24.9389 H       1  UNL1        0.0582
     58 H         -18.4907   -4.6877  -23.8060 H       1  UNL1        0.0295
     59 H         -18.3842   -3.5734  -25.1371 H       1  UNL1        0.0295
     60 H         -18.1131   -5.5049  -26.7145 H       1  UNL1        0.0395
     61 H         -18.9610   -7.5801  -25.7735 H       1  UNL1        0.0288
     62 H         -18.3624   -7.1676  -24.1789 H       1  UNL1        0.0288
     63 H         -16.7528   -8.1458  -26.5515 H       1  UNL1        0.0462
     64 H         -16.5616   -8.5552  -24.8393 H       1  UNL1        0.0462
     65 H         -14.8577   -6.7681  -25.5470 H       1  UNL1        0.1487
     66 H         -25.5683   -2.4430  -22.0397 H       1  UNL1        0.0639
     67 H         -27.4589   -3.8896  -21.4069 H       1  UNL1        0.0618
     68 H         -27.3828   -6.3193  -21.7545 H       1  UNL1        0.0618
     69 H         -25.3731   -7.3972  -22.7443 H       1  UNL1        0.0629
@<TRIPOS>BOND
     1     1     2    1
     2     1    36    1
     3     1    37    1
     4     1    38    1
     5     2     3    1
     6     2     4    1
     7     2    39    1
     8     3    40    1
     9     3    41    1
    10     3    42    1
    11     4     5    1
    12     4    43    1
    13     4    44    1
    14     5     6    1
    15     5    14    1
    16     5    45    1
    17     6     7   am
    18     6    46    1
    19     7     8    2
    20     7     9    1
    21     9    10    1
    22    10    11    1
    23    10    12    1
    24    10    13    1
    25    11    47    1
    26    11    48    1
    27    11    49    1
    28    12    50    1
    29    12    51    1
    30    12    52    1
    31    13    53    1
    32    13    54    1
    33    13    55    1
    34    14    15    2
    35    14    16   am
    36    16    17    1
    37    16    56    1
    38    17    18    1
    39    17    25    1
    40    17    57    1
    41    18    19    1
    42    18    58    1
    43    18    59    1
    44    19    23    1
    45    19    20    1
    46    19    60    1
    47    20    21    1
    48    20    61    1
    49    20    62    1
    50    21    22    1
    51    21    63    1
    52    21    64    1
    53    22    23   am
    54    22    65    1
    55    23    24    2
    56    25    26    2
    57    25    27    1
    58    27    35   ar
    59    27    28   ar
    60    28    29   ar
    61    29    34   ar
    62    29    30   ar
    63    30    31   ar
    64    30    66    1
    65    31    32   ar
    66    31    67    1
    67    32    33   ar
    68    32    68    1
    69    33    34   ar
    70    33    69    1
    71    34    35   ar
