@<TRIPOS>MOLECULE
/home/lixiaoshuang.lxs/med/data/m_pro/PDB_BA/2z9g/2z9g_ligand.pdb
 6 6 0 0 0
SMALL
GASTEIGER

@<TRIPOS>ATOM
      1  C1        21.3200   -1.7070   18.7490 C.ar  602  BNZ602      0.0000
      2  C2        20.7960   -2.9760   18.1710 C.ar  602  BNZ602      0.0000
      3  C3        19.5290   -3.0470   17.7080 C.ar  602  BNZ602      0.0000
      4  C4        18.6490   -1.8460   17.7750 C.ar  602  BNZ602      0.0000
      5  C5        19.1220   -0.6880   18.3010 C.ar  602  BNZ602      0.0000
      6  C6        20.5180   -0.6130   18.8110 C.ar  602  BNZ602      0.0000
@<TRIPOS>BOND
     1     3     4   ar
     2     3     2   ar
     3     4     5   ar
     4     2     1   ar
     5     5     6   ar
     6     1     6   ar
