@<TRIPOS>MOLECULE
*****
 59 62 0 0 0
SMALL
GASTEIGER
****
Schrodinger Suite 2019-4.
@<TRIPOS>ATOM
      1 C         -22.8592   -3.7987  -29.8450 C.3     0  UNK0       -0.0349
      2 C         -22.8112   -3.5837  -31.3592 C.3     0  UNK0       -0.0498
      3 C         -23.6205   -2.3419  -31.7330 C.3     0  UNK0       -0.0528
      4 C         -25.0678   -2.4354  -31.2360 C.3     0  UNK0       -0.0527
      5 C         -25.1017   -2.7002  -29.7235 C.3     0  UNK0       -0.0485
      6 C         -24.3176   -3.9683  -29.3607 C.3     0  UNK0       -0.0223
      7 C         -24.3879   -4.2799  -27.8495 C.3     0  UNK0        0.0186
      8 N         -23.5133   -5.4249  -27.5333 N.am    0  UNK0       -0.2884
      9 C         -22.1060   -5.0885  -27.8725 C.3     0  UNK0        0.0799
     10 C         -20.9775   -5.9525  -27.2598 C.3     0  UNK0        0.1079
     11 CA        -20.2151   -5.0660  -25.0684 C.2     1  HIS1        0.1102
     12 CB        -18.9022   -4.8320  -25.8049 C.3     1  HIS1        0.0668
     13 CG        -17.8890   -5.9082  -25.5841 C.ar    1  HIS1        0.0452
     14 CD2       -16.8909   -5.9651  -24.6479 C.ar    1  HIS1        0.0489
     15 NE2       -16.2204   -7.1827  -24.7226 N.ar    1  HIS1       -0.2440
     16 CE1       -16.8191   -7.8146  -25.7204 C.ar    1  HIS1        0.0935
     17 ND1       -17.7899   -7.0964  -26.2910 N.ar    1  HIS1       -0.3478
     18 C         -20.6770   -4.4408  -23.9233 C.2     1  HIS1       -0.0846
     19 O         -20.2777   -3.5478  -23.1481 O.co2   1  HIS1       -0.8752
     20 C         -21.9816   -4.9689  -29.3932 C.3     0  UNK0       -0.0254
     21 C         -23.9589   -6.6523  -27.1410 C.2     0  UNK0        0.2470
     22 O         -23.2327   -7.6276  -26.9697 O.2     0  UNK0       -0.2700
     23 C         -25.4133   -6.8459  -26.8627 C.ar    0  UNK0        0.0370
     24 C         -26.1930   -7.6469  -27.7228 C.ar    0  UNK0       -0.0486
     25 C         -27.5576   -7.8538  -27.4440 C.ar    0  UNK0       -0.0470
     26 C         -28.1412   -7.2633  -26.3057 C.ar    0  UNK0        0.0179
     27 BR        -29.9860   -7.5045  -25.9214 Br      0  UNK0       -0.0503
     28 C         -27.3569   -6.4894  -25.4329 C.ar    0  UNK0       -0.0470
     29 C         -25.9910   -6.2944  -25.7022 C.ar    0  UNK0       -0.0486
     30 N         -21.0727   -6.0446  -25.7845 N.pl3   1  HIS1       -0.4022
     31 H         -22.4522   -2.8973  -29.3809 H       0  UNK0        0.0305
     32 H         -23.2070   -4.4585  -31.8792 H       0  UNK0        0.0268
     33 H         -21.7792   -3.4601  -31.6899 H       0  UNK0        0.0268
     34 H         -23.5961   -2.2548  -32.8097 H       0  UNK0        0.0265
     35 H         -23.1437   -1.4478  -31.3275 H       0  UNK0        0.0265
     36 H         -25.5659   -3.2403  -31.7726 H       0  UNK0        0.0265
     37 H         -25.6066   -1.5168  -31.4716 H       0  UNK0        0.0265
     38 H         -26.1221   -2.7523  -29.3543 H       0  UNK0        0.0269
     39 H         -24.6388   -1.8549  -29.2213 H       0  UNK0        0.0269
     40 H         -24.7542   -4.8150  -29.8919 H       0  UNK0        0.0319
     41 H         -25.4286   -4.4270  -27.5669 H       0  UNK0        0.0467
     42 H         -24.0581   -3.4151  -27.2714 H       0  UNK0        0.0467
     43 H         -21.9207   -4.0802  -27.4979 H       0  UNK0        0.0561
     44 H         -20.0205   -5.5007  -27.5177 H       0  UNK0        0.0987
     45 H         -20.9471   -6.9499  -27.6974 H       0  UNK0        0.0987
     46 HB1       -18.4842   -3.8890  -25.4561 H       1  HIS1        0.0433
     47 HB2       -19.1040   -4.7083  -26.8694 H       1  HIS1        0.0433
     48 HD2       -16.6369   -5.2156  -23.9252 H       1  HIS1        0.0848
     49 HE1       -16.5435   -8.8069  -26.0452 H       1  HIS1        0.1027
     50 HD1       -18.3631   -7.3891  -27.0683 H       1  HIS1        0.1665
     51 H         -21.6549   -4.9260  -23.7299 H       1  HIS1        0.0504
     52 H         -20.9459   -4.7797  -29.6771 H       0  UNK0        0.0288
     53 H         -22.2813   -5.8974  -29.8821 H       0  UNK0        0.0288
     54 H         -25.7542   -8.0996  -28.6005 H       0  UNK0        0.0625
     55 H         -28.1552   -8.4603  -28.1057 H       0  UNK0        0.0629
     56 H         -27.8025   -6.0439  -24.5557 H       0  UNK0        0.0629
     57 H         -25.3868   -5.7191  -25.0179 H       0  UNK0        0.0625
     58 H1        -20.8179   -6.9812  -25.5017 H       1  HIS1        0.3725
     59 H2        -22.0389   -5.8914  -25.5263 H       1  HIS1        0.3725
@<TRIPOS>BOND
     1     1     6    1
     2     1    20    1
     3     1     2    1
     4     1    31    1
     5     2     3    1
     6     2    32    1
     7     2    33    1
     8     3     4    1
     9     3    34    1
    10     3    35    1
    11     4     5    1
    12     4    36    1
    13     4    37    1
    14     5     6    1
    15     5    38    1
    16     5    39    1
    17     6     7    1
    18     6    40    1
    19     7     8    1
    20     7    41    1
    21     7    42    1
    22     8     9    1
    23     8    21   am
    24     9    10    1
    25     9    20    1
    26     9    43    1
    27    10    30    1
    28    10    44    1
    29    10    45    1
    30    11    12    1
    31    11    18    2
    32    11    30    1
    33    12    13    1
    34    12    46    1
    35    12    47    1
    36    13    17   ar
    37    13    14   ar
    38    14    15   ar
    39    14    48    1
    40    15    16   ar
    41    16    17   ar
    42    16    49    1
    43    17    50    1
    44    18    19    1
    45    18    51    1
    46    20    52    1
    47    20    53    1
    48    21    22    2
    49    21    23    1
    50    23    29   ar
    51    23    24   ar
    52    24    25   ar
    53    24    54    1
    54    25    26   ar
    55    25    55    1
    56    26    27    1
    57    26    28   ar
    58    28    29   ar
    59    28    56    1
    60    29    57    1
    61    30    58    1
    62    30    59    1
