@<TRIPOS>MOLECULE
/home/lixiaoshuang.lxs/med/data/m_pro/PDB_BA/3snc/3snc_ligand.pdb
 39 38 0 0 0
SMALL
GASTEIGER

@<TRIPOS>ATOM
      1  C         29.4170   51.4660   -6.1850 C.2     0  ACE0        0.2423
      2  O         28.5910   51.9920   -6.9480 O.2     0  ACE0       -0.2733
      3  CH3       30.7210   52.1430   -5.8340 C.3     0  ACE0        0.0964
      4  N         29.0960   50.4700   -5.4140 N.am    1  ASN1       -0.1972
      5  CA        28.8550   49.1030   -5.9060 C.3     1  ASN1        0.1819
      6  C         27.4240   48.6070   -5.5590 C.2     1  ASN1        0.2622
      7  O         26.5300   49.4290   -5.3160 O.2     1  ASN1       -0.2715
      8  CB        29.9600   48.1280   -5.4120 C.3     1  ASN1        0.1195
      9  CG        31.3720   48.4580   -5.9740 C.2     1  ASN1        0.2630
     10  OD1       32.3460   48.5540   -5.2200 O.2     1  ASN1       -0.2716
     11  ND2       31.4760   48.6050   -7.2880 N.am    1  ASN1       -0.0877
     12  N         27.2070   47.2830   -5.5490 N.am    2  SER2       -0.1936
     13  CA        25.8810   46.6820   -5.2330 C.3     2  SER2        0.2055
     14  C         25.9430   45.3800   -4.3960 C.2     2  SER2        0.2644
     15  O         26.9250   44.6200   -4.4820 O.2     2  SER2       -0.2714
     16  CB        25.0650   46.4590   -6.5150 C.3     2  SER2        0.2130
     17  OG        25.9040   46.1970   -7.6260 O.3     2  SER2       -0.2179
     18  N         24.8980   45.1450   -3.5870 N.am    3  THR3       -0.1936
     19  CA        24.7420   43.8910   -2.8200 C.3     3  THR3        0.2028
     20  C         24.0850   42.7690   -3.6460 C.2     3  THR3        0.2643
     21  O         22.8720   42.7930   -3.8880 O.2     3  THR3       -0.2714
     22  CB        23.8960   44.0620   -1.5000 C.3     3  THR3        0.1808
     23  OG1       24.1650   45.3220   -0.8790 O.3     3  THR3       -0.2208
     24  CG2       24.1800   42.9180   -0.5020 C.3     3  THR3        0.0379
     25  N         24.8950   41.7910   -4.0600 N.am    4  SER4       -0.1935
     26  CA        24.3990   40.4950   -4.5530 C.3     4  SER4        0.2055
     27  C         23.6190   39.7820   -3.4450 C.2     4  SER4        0.2639
     28  O         24.2060   39.4070   -2.4100 O.2     4  SER4       -0.2714
     29  CB        25.5660   39.5990   -4.9920 C.3     4  SER4        0.2130
     30  OG        26.2940   40.1680   -6.0680 O.3     4  SER4       -0.2179
     31  C         21.6000   37.6680   -2.4630 C.3     5  ECC5        0.2036
     32  N         22.4180   39.9200   -3.0350 N.am    5  ECC5       -0.2030
     33  O         21.1160   36.8180   -1.4160 O.3     5  ECC5       -0.2185
     34  CA        21.7060   39.1350   -2.0100 C.3     5  ECC5        0.1287
     35  CB        20.3330   39.7160   -1.6930 C.3     5  ECC5        0.0340
     36  CD        19.1770   41.8000   -1.0720 C.2     5  ECC5        0.2608
     37  CG        20.4960   41.0760   -1.0430 C.3     5  ECC5        0.0904
     38  OE1       18.4910   41.7850   -2.0900 O.2     5  ECC5       -0.2717
     39  NE2       18.8480   42.4240    0.0600 N.am    5  ECC5       -0.0878
@<TRIPOS>BOND
     1    17    16    1
     2    11     9   am
     3     2     1    2
     4    16    13    1
     5     1     3    1
     6     1     4   am
     7    30    29    1
     8     9     8    1
     9     9    10    2
    10     5     6    1
    11     5     4    1
    12     5     8    1
    13     6    12   am
    14     6     7    2
    15    12    13    1
    16    13    14    1
    17    29    26    1
    18    26    25    1
    19    26    27    1
    20    15    14    2
    21    14    18   am
    22    25    20   am
    23    21    20    2
    24    20    19    1
    25    18    19    1
    26    27    32   am
    27    27    28    2
    28    32    34    1
    29    19    22    1
    30    31    34    1
    31    31    33    1
    32    38    36    2
    33    34    35    1
    34    35    37    1
    35    22    23    1
    36    22    24    1
    37    36    37    1
    38    36    39   am
