@<TRIPOS>MOLECULE
/home/lixiaoshuang.lxs/med/data/m_pro/PDB_BA/3avz/3avz_ligand.pdb
 42 43 0 0 0
SMALL
GASTEIGER

@<TRIPOS>ATOM
      1  C        -27.8050  -29.8220    5.1430 C.2     1  ACE1        0.2423
      2  O        -27.7050  -30.1000    6.3370 O.2     1  ACE1       -0.2733
      3  CH3      -27.5080  -28.4570    4.5940 C.3     1  ACE1        0.0964
      4  N        -27.8850  -30.9440    4.4240 N.am    2  SER2       -0.1950
      5  CA       -27.9660  -32.2160    5.1310 C.3     2  SER2        0.2054
      6  C        -26.7220  -33.0640    4.8860 C.2     2  SER2        0.2643
      7  O        -25.8850  -32.7270    4.0470 O.2     2  SER2       -0.2714
      8  CB       -29.2180  -32.9860    4.7060 C.3     2  SER2        0.2130
      9  OG       -28.8950  -34.0210    3.7930 O.3     2  SER2       -0.2179
     10  N        -26.6060  -34.1630    5.6230 N.am    3  ALA3       -0.1963
     11  CA       -25.4650  -35.0610    5.4870 C.3     3  ALA3        0.1728
     12  C        -25.6830  -36.0640    4.3590 C.2     3  ALA3        0.2616
     13  O        -26.7780  -36.6020    4.1970 O.2     3  ALA3       -0.2715
     14  CB       -25.1990  -35.7830    6.7990 C.3     3  ALA3        0.0334
     15  N        -24.6330  -36.3100    3.5820 N.am    4  VAL4       -0.1963
     16  CA       -24.7070  -37.2490    2.4690 C.3     4  VAL4        0.1727
     17  C        -23.9340  -38.5250    2.7850 C.2     4  VAL4        0.2616
     18  O        -22.7410  -38.4810    3.0840 O.2     4  VAL4       -0.2715
     19  CB       -24.1530  -36.6310    1.1720 C.3     4  VAL4        0.0290
     20  CG1      -23.8570  -35.1530    1.3720 C.3     4  VAL4        0.0023
     21  CG2      -22.9050  -37.3750    0.7210 C.3     4  VAL4        0.0023
     22  N        -24.6230  -39.6600    2.7180 N.am    5  ALC5       -0.1963
     23  CA       -24.0070  -40.9420    2.9980 C.3     5  ALC5        0.1728
     24  C        -23.1380  -41.3590    1.8180 C.2     5  ALC5        0.2616
     25  O        -23.4960  -40.9830    0.4840 O.2     5  ALC5       -0.2715
     26  CB       -25.0920  -41.9770    3.2710 C.3     5  ALC5        0.0311
     27  CG       -26.0210  -41.5130    4.3860 C.3     5  ALC5        0.0022
     28  CD2      -26.5260  -42.7230    5.1630 C.3     5  ALC5        0.0001
     29  CE2      -27.5670  -42.3100    6.1960 C.3     5  ALC5        0.0000
     30  CZ       -27.1050  -41.0760    6.9610 C.3     5  ALC5        0.0000
     31  CE1      -25.6070  -40.8600    6.7830 C.3     5  ALC5        0.0000
     32  CD1      -25.2620  -40.5810    5.3240 C.3     5  ALC5        0.0001
     33  N        -22.0560  -42.0760    2.1050 N.am    6  HSV6       -0.1973
     34  CA       -21.1440  -42.5360    1.0650 C.3     6  HSV6        0.1656
     35  CB       -19.7840  -41.8490    1.2030 C.3     6  HSV6        0.0771
     36  CG       -19.7830  -40.4180    0.7630 C.ar    6  HSV6        0.0820
     37  ND1      -18.6990  -39.5850    0.9410 N.ar    6  HSV6       -0.2267
     38  CD2      -20.7330  -39.6720    0.1520 C.ar    6  HSV6        0.1154
     39  CE1      -18.9820  -38.3880    0.4590 C.ar    6  HSV6        0.1986
     40  NE2      -20.2110  -38.4140   -0.0260 N.ar    6  HSV6       -0.2212
     41  C        -20.9720  -44.0510    1.1130 C.2     6  HSV6        0.2291
     42  O        -21.3430  -44.7570    0.1750 O.2     6  HSV6       -0.2864
@<TRIPOS>BOND
     1    40    38   ar
     2    40    39   ar
     3    38    36   ar
     4    42    41    2
     5    39    37   ar
     6    25    24    2
     7    21    19    1
     8    36    37   ar
     9    36    35    1
    10    34    41    1
    11    34    35    1
    12    34    33    1
    13    19    20    1
    14    19    16    1
    15    24    33   am
    16    24    23    1
    17    16    17    1
    18    16    15    1
    19    22    17   am
    20    22    23    1
    21    17    18    2
    22    23    26    1
    23    26    27    1
    24    15    12   am
    25     9     8    1
    26     7     6    2
    27    13    12    2
    28    12    11    1
    29    27    28    1
    30    27    32    1
    31     4     5    1
    32     4     1   am
    33     3     1    1
    34     8     5    1
    35     6     5    1
    36     6    10   am
    37     1     2    2
    38    28    29    1
    39    32    31    1
    40    11    10    1
    41    11    14    1
    42    29    30    1
    43    31    30    1
