
                    3D
 Schrodinger Suite 2019-4.
 72 73  0  0  1  0            999 V2000
  -22.1976   -1.9359  -31.4837 C   0  0  0  0  0  0
  -23.4079   -2.5601  -30.7854 C   0  0  0  0  0  0
  -24.6058   -1.6141  -30.9085 C   0  0  0  0  0  0
  -23.1570   -2.9189  -29.3037 C   0  0  0  0  0  0
  -21.8923   -3.7569  -28.9849 C   0  0  2  0  0  0
  -21.7932   -4.9105  -29.8720 N   0  0  0  0  0  0
  -20.6751   -5.6331  -30.0712 C   0  0  0  0  0  0
  -19.5995   -5.3901  -29.5194 O   0  0  0  0  0  0
  -20.7862   -6.7693  -31.0954 C   0  0  2  0  0  0
  -20.3324   -8.0439  -30.5265 N   0  0  0  0  0  0
  -19.1676   -8.7020  -30.6735 C   0  0  0  0  0  0
  -18.2548   -8.3670  -31.4265 O   0  0  0  0  0  0
  -19.0799   -9.9789  -29.8956 C   0  0  0  0  0  0
  -18.3762  -11.0882  -30.4097 C   0  0  0  0  0  0
  -18.2871  -12.2538  -29.6240 C   0  0  0  0  0  0
  -18.8340  -12.3635  -28.3945 N   0  0  0  0  0  0
  -19.5004  -11.2986  -27.9039 C   0  0  0  0  0  0
  -19.6521  -10.0902  -28.6087 C   0  0  0  0  0  0
  -20.2436   -6.4219  -32.5114 C   0  0  0  0  0  0
  -20.8018   -5.0739  -33.0049 C   0  0  0  0  0  0
  -20.5024   -7.5342  -33.5486 C   0  0  0  0  0  0
  -21.9894   -4.2628  -27.5390 C   0  0  0  0  0  0
  -22.8310   -5.1105  -27.2324 O   0  0  0  0  0  0
  -21.0968   -3.7698  -26.6701 N   0  0  0  0  0  0
  -20.9119   -4.2770  -25.3109 C   0  0  2  0  0  0
  -21.6849   -3.4339  -24.2941 C   0  0  0  0  0  0
  -22.6989   -2.7897  -24.5601 O   0  0  0  0  0  0
  -19.3954   -4.2533  -24.9914 C   0  0  0  0  0  0
  -18.5933   -5.3015  -25.8092 C   0  0  2  0  0  0
  -19.2058   -6.7154  -25.6657 C   0  0  0  0  0  0
  -18.2464   -7.8254  -26.0709 C   0  0  0  0  0  0
  -16.9826   -7.7376  -25.2137 C   0  0  0  0  0  0
  -16.4166   -6.3960  -25.2321 N   0  0  0  0  0  0
  -17.0806   -5.2578  -25.4902 C   0  0  0  0  0  0
  -16.4828   -4.1889  -25.5186 O   0  0  0  0  0  0
  -21.3590   -2.6200  -31.4635 H   0  0  0  0  0  0
  -22.4119   -1.7447  -32.5342 H   0  0  0  0  0  0
  -21.8956   -0.9982  -31.0154 H   0  0  0  0  0  0
  -23.6625   -3.4814  -31.3103 H   0  0  0  0  0  0
  -25.4255   -1.9385  -30.2719 H   0  0  0  0  0  0
  -24.3450   -0.6002  -30.6039 H   0  0  0  0  0  0
  -24.9750   -1.5756  -31.9316 H   0  0  0  0  0  0
  -24.0481   -3.4285  -28.9303 H   0  0  0  0  0  0
  -23.0904   -1.9919  -28.7342 H   0  0  0  0  0  0
  -20.9991   -3.1531  -29.1208 H   0  0  0  0  0  0
  -22.6304   -5.1753  -30.3691 H   0  0  0  0  0  0
  -21.8566   -6.9353  -31.2332 H   0  0  0  0  0  0
  -20.9874   -8.4719  -29.8868 H   0  0  0  0  0  0
  -17.9102  -11.0492  -31.3835 H   0  0  0  0  0  0
  -17.7612  -13.1219  -29.9921 H   0  0  0  0  0  0
  -19.9191  -11.4105  -26.9146 H   0  0  0  0  0  0
  -20.1671   -9.2627  -28.1482 H   0  0  0  0  0  0
  -19.1648   -6.2869  -32.4388 H   0  0  0  0  0  0
  -20.5794   -4.8780  -34.0454 H   0  0  0  0  0  0
  -21.8855   -5.0239  -32.8960 H   0  0  0  0  0  0
  -20.3623   -4.2532  -32.4451 H   0  0  0  0  0  0
  -19.6489   -7.6400  -34.2161 H   0  0  0  0  0  0
  -20.6610   -8.5135  -33.1006 H   0  0  0  0  0  0
  -21.3732   -7.3176  -34.1631 H   0  0  0  0  0  0
  -20.4628   -3.0515  -26.9911 H   0  0  0  0  0  0
  -21.3035   -5.2891  -25.2171 H   0  0  0  0  0  0
  -21.2577   -3.4726  -23.2915 H   0  0  0  0  0  0
  -19.2427   -4.4583  -23.9301 H   0  0  0  0  0  0
  -18.9904   -3.2539  -25.1624 H   0  0  0  0  0  0
  -18.6555   -5.0307  -26.8641 H   0  0  0  0  0  0
  -20.0976   -6.8027  -26.2876 H   0  0  0  0  0  0
  -19.5213   -6.8739  -24.6347 H   0  0  0  0  0  0
  -17.9990   -7.7129  -27.1270 H   0  0  0  0  0  0
  -18.7166   -8.8022  -25.9554 H   0  0  0  0  0  0
  -16.2294   -8.4405  -25.5679 H   0  0  0  0  0  0
  -17.2060   -8.0086  -24.1818 H   0  0  0  0  0  0
  -15.4209   -6.3316  -25.0644 H   0  0  0  0  0  0
  1  2  1  0  0  0
  1 36  1  0  0  0
  1 37  1  0  0  0
  1 38  1  0  0  0
  2  3  1  0  0  0
  2  4  1  0  0  0
  2 39  1  0  0  0
  3 40  1  0  0  0
  3 41  1  0  0  0
  3 42  1  0  0  0
  4  5  1  0  0  0
  4 43  1  0  0  0
  4 44  1  0  0  0
  5  6  1  0  0  0
  5 22  1  0  0  0
  5 45  1  0  0  0
  6  7  1  0  0  0
  6 46  1  0  0  0
  7  8  2  0  0  0
  7  9  1  0  0  0
  9 10  1  0  0  0
  9 19  1  0  0  0
  9 47  1  0  0  0
 10 11  1  0  0  0
 10 48  1  0  0  0
 11 12  2  0  0  0
 11 13  1  0  0  0
 13 18  1  0  0  0
 13 14  2  0  0  0
 14 15  1  0  0  0
 14 49  1  0  0  0
 15 16  2  0  0  0
 15 50  1  0  0  0
 16 17  1  0  0  0
 17 18  2  0  0  0
 17 51  1  0  0  0
 18 52  1  0  0  0
 19 20  1  0  0  0
 19 21  1  0  0  0
 19 53  1  0  0  0
 20 54  1  0  0  0
 20 55  1  0  0  0
 20 56  1  0  0  0
 21 57  1  0  0  0
 21 58  1  0  0  0
 21 59  1  0  0  0
 22 23  2  0  0  0
 22 24  1  0  0  0
 24 25  1  0  0  0
 24 60  1  0  0  0
 25 26  1  0  0  0
 25 28  1  0  0  0
 25 61  1  0  0  0
 26 27  2  0  0  0
 26 62  1  0  0  0
 28 29  1  0  0  0
 28 63  1  0  0  0
 28 64  1  0  0  0
 29 34  1  0  0  0
 29 30  1  0  0  0
 29 65  1  0  0  0
 30 31  1  0  0  0
 30 66  1  0  0  0
 30 67  1  0  0  0
 31 32  1  0  0  0
 31 68  1  0  0  0
 31 69  1  0  0  0
 32 33  1  0  0  0
 32 70  1  0  0  0
 32 71  1  0  0  0
 33 34  1  0  0  0
 33 72  1  0  0  0
 34 35  2  0  0  0
M  END
$$$$
