@<TRIPOS>MOLECULE
*****
 72 73 0 0 0
SMALL
GASTEIGER
****
Schrodinger Suite 2019-4.
@<TRIPOS>ATOM
      1 CD1       -22.1976   -1.9359  -31.4837 C.3     1  VAL1       -0.0626
      2 CG        -23.4079   -2.5601  -30.7854 C.3     1  VAL1       -0.0446
      3 CD2       -24.6058   -1.6141  -30.9085 C.3     1  VAL1       -0.0626
      4 CB        -23.1570   -2.9189  -29.3037 C.3     1  VAL1       -0.0236
      5 CA        -21.8923   -3.7569  -28.9849 C.3     1  VAL1        0.0996
      6 N         -21.7932   -4.9105  -29.8720 N.am    1  VAL1       -0.3025
      7 C         -20.6751   -5.6331  -30.0712 C.2     1  VAL1        0.2342
      8 O         -19.5995   -5.3901  -29.5194 O.2     1  VAL1       -0.2738
      9 CA        -20.7862   -6.7693  -31.0954 C.3     1  VAL1        0.1020
     10 N         -20.3324   -8.0439  -30.5265 N.am    1  VAL1       -0.2998
     11 C         -19.1676   -8.7020  -30.6735 C.2     0  UNK0        0.2448
     12 O         -18.2548   -8.3670  -31.4265 O.2     0  UNK0       -0.2702
     13 C         -19.0799   -9.9789  -29.8956 C.ar    0  UNK0        0.0396
     14 C         -18.3762  -11.0882  -30.4097 C.ar    0  UNK0       -0.0315
     15 C         -18.2871  -12.2538  -29.6240 C.ar    0  UNK0        0.0283
     16 N         -18.8340  -12.3635  -28.3945 N.ar    0  UNK0       -0.2632
     17 C         -19.5004  -11.2986  -27.9039 C.ar    0  UNK0        0.0283
     18 C         -19.6521  -10.0902  -28.6087 C.ar    0  UNK0       -0.0315
     19 CB        -20.2436   -6.4219  -32.5114 C.3     1  VAL1       -0.0197
     20 CG1       -20.8018   -5.0739  -33.0049 C.3     1  VAL1       -0.0605
     21 CG2       -20.5024   -7.5342  -33.5486 C.3     1  VAL1       -0.0605
     22 C         -21.9894   -4.2628  -27.5390 C.2     1  VAL1        0.2339
     23 O         -22.8310   -5.1105  -27.2324 O.2     1  VAL1       -0.2738
     24 N         -21.0968   -3.7698  -26.6701 N.am    2  UNK2       -0.3044
     25 C         -20.9119   -4.2770  -25.3109 C.3     2  UNK2        0.0791
     26 C         -21.6849   -3.4339  -24.2941 C.2     2  UNK2        0.1404
     27 O         -22.6989   -2.7897  -24.5601 O.2     2  UNK2       -0.2991
     28 C         -19.3954   -4.2533  -24.9914 C.3     2  UNK2       -0.0168
     29 C         -18.5933   -5.3015  -25.8092 C.3     2  UNK2        0.0377
     30 C         -19.2058   -6.7154  -25.6657 C.3     2  UNK2       -0.0404
     31 C         -18.2464   -7.8254  -26.0709 C.3     2  UNK2       -0.0367
     32 C         -16.9826   -7.7376  -25.2137 C.3     2  UNK2        0.0116
     33 N         -16.4166   -6.3960  -25.2321 N.am    2  UNK2       -0.3151
     34 C         -17.0806   -5.2578  -25.4902 C.2     2  UNK2        0.2162
     35 O         -16.4828   -4.1889  -25.5186 O.2     2  UNK2       -0.2755
     36 HD11      -21.3590   -2.6200  -31.4635 H       1  VAL1        0.0232
     37 HD12      -22.4119   -1.7447  -32.5342 H       1  VAL1        0.0232
     38 HD13      -21.8956   -0.9982  -31.0154 H       1  VAL1        0.0232
     39 HG        -23.6625   -3.4814  -31.3103 H       1  VAL1        0.0296
     40 HD21      -25.4255   -1.9385  -30.2719 H       1  VAL1        0.0232
     41 HD22      -24.3450   -0.6002  -30.6039 H       1  VAL1        0.0232
     42 HD23      -24.9750   -1.5756  -31.9316 H       1  VAL1        0.0232
     43 HB1       -24.0481   -3.4285  -28.9303 H       1  VAL1        0.0290
     44 HB2       -23.0904   -1.9919  -28.7342 H       1  VAL1        0.0290
     45 HA        -20.9991   -3.1531  -29.1208 H       1  VAL1        0.0594
     46 H         -22.6304   -5.1753  -30.3691 H       1  VAL1        0.1495
     47 HA        -21.8566   -6.9353  -31.2332 H       1  VAL1        0.0597
     48 H         -20.9874   -8.4719  -29.8868 H       1  VAL1        0.1498
     49 H         -17.9102  -11.0492  -31.3835 H       0  UNK0        0.0640
     50 H         -17.7612  -13.1219  -29.9921 H       0  UNK0        0.0830
     51 H         -19.9191  -11.4105  -26.9146 H       0  UNK0        0.0830
     52 H         -20.1671   -9.2627  -28.1482 H       0  UNK0        0.0640
     53 HB        -19.1648   -6.2869  -32.4388 H       1  VAL1        0.0318
     54 HG11      -20.5794   -4.8780  -34.0454 H       1  VAL1        0.0233
     55 HG12      -21.8855   -5.0239  -32.8960 H       1  VAL1        0.0233
     56 HG13      -20.3623   -4.2532  -32.4451 H       1  VAL1        0.0233
     57 HG21      -19.6489   -7.6400  -34.2161 H       1  VAL1        0.0233
     58 HG22      -20.6610   -8.5135  -33.1006 H       1  VAL1        0.0233
     59 HG23      -21.3732   -7.3176  -34.1631 H       1  VAL1        0.0233
     60 H         -20.4628   -3.0515  -26.9911 H       2  UNK2        0.1494
     61 H         -21.3035   -5.2891  -25.2171 H       2  UNK2        0.0574
     62 H         -21.2577   -3.4726  -23.2915 H       2  UNK2        0.1046
     63 H         -19.2427   -4.4583  -23.9301 H       2  UNK2        0.0294
     64 H         -18.9904   -3.2539  -25.1624 H       2  UNK2        0.0294
     65 H         -18.6555   -5.0307  -26.8641 H       2  UNK2        0.0395
     66 H         -20.0976   -6.8027  -26.2876 H       2  UNK2        0.0273
     67 H         -19.5213   -6.8739  -24.6347 H       2  UNK2        0.0273
     68 H         -17.9990   -7.7129  -27.1270 H       2  UNK2        0.0280
     69 H         -18.7166   -8.8022  -25.9554 H       2  UNK2        0.0280
     70 H         -16.2294   -8.4405  -25.5679 H       2  UNK2        0.0462
     71 H         -17.2060   -8.0086  -24.1818 H       2  UNK2        0.0462
     72 H         -15.4209   -6.3316  -25.0644 H       2  UNK2        0.1487
@<TRIPOS>BOND
     1     1     2    1
     2     1    36    1
     3     1    37    1
     4     1    38    1
     5     2     3    1
     6     2     4    1
     7     2    39    1
     8     3    40    1
     9     3    41    1
    10     3    42    1
    11     4     5    1
    12     4    43    1
    13     4    44    1
    14     5     6    1
    15     5    22    1
    16     5    45    1
    17     6     7   am
    18     6    46    1
    19     7     8    2
    20     7     9    1
    21     9    10    1
    22     9    19    1
    23     9    47    1
    24    10    11   am
    25    10    48    1
    26    11    12    2
    27    11    13    1
    28    13    18   ar
    29    13    14   ar
    30    14    15   ar
    31    14    49    1
    32    15    16   ar
    33    15    50    1
    34    16    17   ar
    35    17    18   ar
    36    17    51    1
    37    18    52    1
    38    19    20    1
    39    19    21    1
    40    19    53    1
    41    20    54    1
    42    20    55    1
    43    20    56    1
    44    21    57    1
    45    21    58    1
    46    21    59    1
    47    22    23    2
    48    22    24   am
    49    24    25    1
    50    24    60    1
    51    25    26    1
    52    25    28    1
    53    25    61    1
    54    26    27    2
    55    26    62    1
    56    28    29    1
    57    28    63    1
    58    28    64    1
    59    29    34    1
    60    29    30    1
    61    29    65    1
    62    30    31    1
    63    30    66    1
    64    30    67    1
    65    31    32    1
    66    31    68    1
    67    31    69    1
    68    32    33    1
    69    32    70    1
    70    32    71    1
    71    33    34   am
    72    33    72    1
    73    34    35    2
