@<TRIPOS>MOLECULE
*****
 53 53 0 0 0
SMALL
GASTEIGER
****
Schrodinger Suite 2019-4.
@<TRIPOS>ATOM
      1 C         -20.1817   -9.0411  -30.4398 C.ar    1  UNL1       -0.0614
      2 C         -19.0510   -9.8382  -30.7011 C.ar    1  UNL1       -0.0617
      3 C         -18.1585   -9.4774  -31.7289 C.ar    1  UNL1       -0.0614
      4 C         -18.3910   -8.3151  -32.4888 C.ar    1  UNL1       -0.0554
      5 C         -19.5183   -7.5097  -32.2278 C.ar    1  UNL1       -0.0103
      6 C         -20.4213   -7.8857  -31.2068 C.ar    1  UNL1       -0.0554
      7 C         -19.7339   -6.2560  -33.0621 C.3     1  UNL1        0.1191
      8 O         -20.8389   -5.4641  -32.6467 O.3     1  UNL1       -0.4456
      9 C         -20.8940   -4.9729  -31.3981 C.2     1  UNL1        0.4012
     10 O         -20.0928   -5.2219  -30.4978 O.2     1  UNL1       -0.2265
     11 N         -22.0346   -4.1995  -31.3000 N.am    1  UNL1       -0.2696
     12 C         -22.5744   -3.5910  -30.0892 C.3     1  UNL1        0.1048
     13 C         -22.1564   -4.4894  -28.9084 C.2     1  UNL1        0.2343
     14 O         -21.8236   -5.6574  -29.1052 O.2     1  UNL1       -0.2738
     15 N         -22.1325   -3.9232  -27.6907 N.am    1  UNL1       -0.3035
     16 C         -21.4368   -4.4855  -26.5308 C.3     1  UNL1        0.0941
     17 C         -22.1389   -4.1723  -25.1922 C.2     1  UNL1        0.1843
     18 C         -23.6546   -3.9692  -25.1803 C.3     1  UNL1        0.1498
     19 F         -24.1368   -3.8416  -23.9465 F       1  UNL1       -0.2409
     20 O         -21.5533   -4.1484  -24.1133 O.2     1  UNL1       -0.2927
     21 C         -19.9324   -4.1296  -26.5901 C.3     1  UNL1        0.0702
     22 C         -19.0315   -4.5727  -25.4290 C.2     1  UNL1        0.3090
     23 O         -17.9468   -5.2210  -25.8727 O.3     1  UNL1       -0.4679
     24 C         -16.9913   -5.6993  -24.9424 C.3     1  UNL1        0.0817
     25 O         -19.2945   -4.3493  -24.2468 O.2     1  UNL1       -0.2508
     26 C         -24.1213   -3.5462  -30.2442 C.3     1  UNL1       -0.0196
     27 C         -24.5572   -2.9292  -31.5827 C.3     1  UNL1       -0.0605
     28 C         -24.8144   -2.7877  -29.1139 C.3     1  UNL1       -0.0605
     29 H         -20.8657   -9.3155  -29.6501 H       1  UNL1        0.0618
     30 H         -18.8682  -10.7256  -30.1129 H       1  UNL1        0.0618
     31 H         -17.2887  -10.0858  -31.9290 H       1  UNL1        0.0618
     32 H         -17.6937   -8.0399  -33.2670 H       1  UNL1        0.0621
     33 H         -21.2958   -7.2885  -30.9934 H       1  UNL1        0.0621
     34 H         -19.8962   -6.5557  -34.0977 H       1  UNL1        0.0749
     35 H         -18.8205   -5.6644  -33.0459 H       1  UNL1        0.0749
     36 H         -22.5966   -4.1449  -32.1361 H       1  UNL1        0.1528
     37 H         -22.1768   -2.5829  -29.9619 H       1  UNL1        0.0598
     38 H         -22.4483   -2.9670  -27.6043 H       1  UNL1        0.1495
     39 H         -21.4432   -5.5712  -26.6269 H       1  UNL1        0.0583
     40 H         -24.1528   -4.8224  -25.6394 H       1  UNL1        0.0696
     41 H         -23.9274   -3.0752  -25.7356 H       1  UNL1        0.0696
     42 H         -19.8256   -3.0505  -26.7007 H       1  UNL1        0.0400
     43 H         -19.5110   -4.5648  -27.4860 H       1  UNL1        0.0400
     44 H         -16.1808   -6.2087  -25.4634 H       1  UNL1        0.0661
     45 H         -16.5615   -4.8751  -24.3727 H       1  UNL1        0.0661
     46 H         -17.4472   -6.4066  -24.2480 H       1  UNL1        0.0661
     47 H         -24.5036   -4.5647  -30.2116 H       1  UNL1        0.0318
     48 H         -25.6433   -2.9381  -31.6811 H       1  UNL1        0.0233
     49 H         -24.2308   -1.8931  -31.6409 H       1  UNL1        0.0233
     50 H         -24.1544   -3.4660  -32.4415 H       1  UNL1        0.0233
     51 H         -25.8895   -2.7215  -29.2816 H       1  UNL1        0.0233
     52 H         -24.6740   -3.2875  -28.1568 H       1  UNL1        0.0233
     53 H         -24.4221   -1.7746  -29.0421 H       1  UNL1        0.0233
@<TRIPOS>BOND
     1     1     6   ar
     2     1     2   ar
     3     1    29    1
     4     2     3   ar
     5     2    30    1
     6     3     4   ar
     7     3    31    1
     8     4     5   ar
     9     4    32    1
    10     5     6   ar
    11     5     7    1
    12     6    33    1
    13     7     8    1
    14     7    34    1
    15     7    35    1
    16     8     9    1
    17     9    10    2
    18     9    11   am
    19    11    12    1
    20    11    36    1
    21    12    13    1
    22    12    26    1
    23    12    37    1
    24    13    14    2
    25    13    15   am
    26    15    16    1
    27    15    38    1
    28    16    17    1
    29    16    21    1
    30    16    39    1
    31    17    18    1
    32    17    20    2
    33    18    19    1
    34    18    40    1
    35    18    41    1
    36    21    22    1
    37    21    42    1
    38    21    43    1
    39    22    23    1
    40    22    25    2
    41    23    24    1
    42    24    44    1
    43    24    45    1
    44    24    46    1
    45    26    27    1
    46    26    28    1
    47    26    47    1
    48    27    48    1
    49    27    49    1
    50    27    50    1
    51    28    51    1
    52    28    52    1
    53    28    53    1
