@<TRIPOS>MOLECULE
*****
 75 78 0 0 0
SMALL
GASTEIGER
****
Schrodinger Suite 2019-4.
@<TRIPOS>ATOM
      1 C         -27.9342   -2.1856  -29.9882 C.3     1  UNL1        0.0788
      2 O         -26.8616   -2.5371  -29.1172 O.3     1  UNL1       -0.4951
      3 C         -26.9943   -2.3573  -27.7572 C.ar    1  UNL1        0.1218
      4 C         -28.1063   -1.7585  -27.1539 C.ar    1  UNL1       -0.0198
      5 C         -28.0976   -1.4597  -25.7993 C.ar    1  UNL1       -0.0566
      6 C         -27.0120   -1.8162  -25.0092 C.ar    1  UNL1       -0.0406
      7 C         -25.9433   -2.5070  -25.5688 C.ar    1  UNL1        0.0310
      8 N         -24.9394   -2.9267  -24.6906 N.pl3   1  UNL1       -0.3353
      9 C         -24.0877   -4.0499  -24.9812 C.3     1  UNL1        0.0858
     10 C         -22.9070   -3.7016  -25.9026 C.2     1  UNL1        0.2307
     11 O         -22.6224   -2.5376  -26.1975 O.2     1  UNL1       -0.2741
     12 N         -22.1785   -4.7498  -26.2942 N.am    1  UNL1       -0.3027
     13 C         -20.8802   -4.6449  -26.9343 C.3     1  UNL1        0.0996
     14 C         -19.8046   -5.1737  -25.9698 C.3     1  UNL1       -0.0236
     15 C         -19.6068   -4.2589  -24.7555 C.3     1  UNL1       -0.0446
     16 C         -18.2125   -4.4206  -24.1981 C.3     1  UNL1       -0.0626
     17 C         -20.6364   -4.4347  -23.6136 C.3     1  UNL1       -0.0626
     18 C         -20.9212   -5.4822  -28.1965 C.2     1  UNL1        0.2339
     19 O         -20.9673   -6.7016  -28.1047 O.2     1  UNL1       -0.2738
     20 N         -20.9012   -4.8184  -29.3564 N.am    1  UNL1       -0.3037
     21 C         -20.9342   -5.4314  -30.6955 C.3     1  UNL1        0.0888
     22 C         -21.2982   -4.3408  -31.7454 C.3     1  UNL1       -0.0160
     23 C         -22.7967   -3.8620  -31.7923 C.3     1  UNL1        0.0390
     24 C         -22.9615   -2.5658  -32.5784 C.3     1  UNL1       -0.0262
     25 C         -22.8839   -1.4750  -31.5249 C.3     1  UNL1        0.0123
     26 N         -23.4147   -2.1534  -30.3559 N.am    1  UNL1       -0.3151
     27 C         -23.4037   -3.4934  -30.4191 C.2     1  UNL1        0.2162
     28 O         -23.8140   -4.2762  -29.5673 O.2     1  UNL1       -0.2755
     29 C         -19.5777   -6.1329  -30.9445 C.2     1  UNL1        0.2079
     30 O         -18.6124   -5.9249  -30.1979 O.2     1  UNL1       -0.2879
     31 C         -19.4554   -7.1168  -32.0286 C.ar    1  UNL1        0.1465
     32 N         -20.3189   -7.3460  -32.9852 N.ar    1  UNL1       -0.2360
     33 C         -19.9073   -8.3540  -33.8072 C.ar    1  UNL1        0.0790
     34 C         -20.6120   -8.8087  -34.9319 C.ar    1  UNL1       -0.0352
     35 C         -20.0691   -9.8534  -35.6833 C.ar    1  UNL1       -0.0597
     36 C         -18.8531  -10.4378  -35.3326 C.ar    1  UNL1       -0.0606
     37 C         -18.1224   -9.9939  -34.2293 C.ar    1  UNL1       -0.0459
     38 C         -18.6606   -8.9437  -33.4739 C.ar    1  UNL1        0.0396
     39 S         -18.0166   -8.1370  -32.0587 S.2     1  UNL1       -0.0643
     40 C         -25.9259   -2.7500  -26.9510 C.ar    1  UNL1        0.0009
     41 H         -28.7100   -2.9502  -29.9605 H       1  UNL1        0.0660
     42 H         -28.3849   -1.2129  -29.7980 H       1  UNL1        0.0660
     43 H         -27.5584   -2.1352  -31.0055 H       1  UNL1        0.0660
     44 H         -28.9715   -1.4596  -27.7261 H       1  UNL1        0.0654
     45 H         -28.9480   -0.9371  -25.3945 H       1  UNL1        0.0619
     46 H         -27.0125   -1.5719  -23.9571 H       1  UNL1        0.0636
     47 H         -25.2784   -2.8903  -23.7409 H       1  UNL1        0.1466
     48 H         -24.6204   -4.9259  -25.3515 H       1  UNL1        0.0557
     49 H         -23.6115   -4.3771  -24.0562 H       1  UNL1        0.0557
     50 H         -22.4763   -5.6856  -26.0613 H       1  UNL1        0.1495
     51 H         -20.6383   -3.6147  -27.2128 H       1  UNL1        0.0594
     52 H         -18.8651   -5.2229  -26.5249 H       1  UNL1        0.0290
     53 H         -20.0078   -6.1969  -25.6510 H       1  UNL1        0.0290
     54 H         -19.6696   -3.2297  -25.1048 H       1  UNL1        0.0296
     55 H         -18.2031   -3.7367  -23.3695 H       1  UNL1        0.0232
     56 H         -18.0253   -5.4271  -23.8210 H       1  UNL1        0.0232
     57 H         -17.4270   -4.1370  -24.9014 H       1  UNL1        0.0232
     58 H         -20.1597   -4.5367  -22.6386 H       1  UNL1        0.0232
     59 H         -21.2807   -3.5594  -23.5392 H       1  UNL1        0.0232
     60 H         -21.2672   -5.3129  -23.7604 H       1  UNL1        0.0232
     61 H         -20.9125   -3.8089  -29.3336 H       1  UNL1        0.1495
     62 H         -21.7277   -6.1849  -30.7072 H       1  UNL1        0.0582
     63 H         -21.0534   -4.6994  -32.7457 H       1  UNL1        0.0295
     64 H         -20.6484   -3.4781  -31.5943 H       1  UNL1        0.0295
     65 H         -23.4193   -4.6341  -32.2417 H       1  UNL1        0.0395
     66 H         -23.9589   -2.5442  -33.0152 H       1  UNL1        0.0288
     67 H         -22.2503   -2.4272  -33.3940 H       1  UNL1        0.0288
     68 H         -23.5031   -0.6159  -31.7861 H       1  UNL1        0.0462
     69 H         -21.8639   -1.1347  -31.3345 H       1  UNL1        0.0462
     70 H         -23.6661   -1.6644  -29.5092 H       1  UNL1        0.1487
     71 H         -21.5465   -8.3572  -35.2251 H       1  UNL1        0.0639
     72 H         -20.5961  -10.2097  -36.5565 H       1  UNL1        0.0618
     73 H         -18.4619  -11.2416  -35.9395 H       1  UNL1        0.0618
     74 H         -17.1746  -10.4425  -33.9701 H       1  UNL1        0.0629
     75 H         -25.0886   -3.2345  -27.4248 H       1  UNL1        0.0673
@<TRIPOS>BOND
     1     1     2    1
     2     1    41    1
     3     1    42    1
     4     1    43    1
     5     2     3    1
     6     3    40   ar
     7     3     4   ar
     8     4     5   ar
     9     4    44    1
    10     5     6   ar
    11     5    45    1
    12     6     7   ar
    13     6    46    1
    14     7     8    1
    15     7    40   ar
    16     8     9    1
    17     8    47    1
    18     9    10    1
    19     9    48    1
    20     9    49    1
    21    10    11    2
    22    10    12   am
    23    12    13    1
    24    12    50    1
    25    13    14    1
    26    13    18    1
    27    13    51    1
    28    14    15    1
    29    14    52    1
    30    14    53    1
    31    15    16    1
    32    15    17    1
    33    15    54    1
    34    16    55    1
    35    16    56    1
    36    16    57    1
    37    17    58    1
    38    17    59    1
    39    17    60    1
    40    18    19    2
    41    18    20   am
    42    20    21    1
    43    20    61    1
    44    21    22    1
    45    21    29    1
    46    21    62    1
    47    22    23    1
    48    22    63    1
    49    22    64    1
    50    23    27    1
    51    23    24    1
    52    23    65    1
    53    24    25    1
    54    24    66    1
    55    24    67    1
    56    25    26    1
    57    25    68    1
    58    25    69    1
    59    26    27   am
    60    26    70    1
    61    27    28    2
    62    29    30    2
    63    29    31    1
    64    31    39   ar
    65    31    32   ar
    66    32    33   ar
    67    33    38   ar
    68    33    34   ar
    69    34    35   ar
    70    34    71    1
    71    35    36   ar
    72    35    72    1
    73    36    37   ar
    74    36    73    1
    75    37    38   ar
    76    37    74    1
    77    38    39   ar
    78    40    75    1
