
                    3D
 Schrodinger Suite 2019-4.
 75 78  0  0  1  0            999 V2000
  -27.9342   -2.1856  -29.9882 C   0  0  0  0  0  0
  -26.8616   -2.5371  -29.1172 O   0  0  0  0  0  0
  -26.9943   -2.3573  -27.7572 C   0  0  0  0  0  0
  -28.1063   -1.7585  -27.1539 C   0  0  0  0  0  0
  -28.0976   -1.4597  -25.7993 C   0  0  0  0  0  0
  -27.0120   -1.8162  -25.0092 C   0  0  0  0  0  0
  -25.9433   -2.5070  -25.5688 C   0  0  0  0  0  0
  -24.9394   -2.9267  -24.6906 N   0  0  0  0  0  0
  -24.0877   -4.0499  -24.9812 C   0  0  0  0  0  0
  -22.9070   -3.7016  -25.9026 C   0  0  0  0  0  0
  -22.6224   -2.5376  -26.1975 O   0  0  0  0  0  0
  -22.1785   -4.7498  -26.2942 N   0  0  0  0  0  0
  -20.8802   -4.6449  -26.9343 C   0  0  1  0  0  0
  -19.8046   -5.1737  -25.9698 C   0  0  0  0  0  0
  -19.6068   -4.2589  -24.7555 C   0  0  0  0  0  0
  -18.2125   -4.4206  -24.1981 C   0  0  0  0  0  0
  -20.6364   -4.4347  -23.6136 C   0  0  0  0  0  0
  -20.9212   -5.4822  -28.1965 C   0  0  0  0  0  0
  -20.9673   -6.7016  -28.1047 O   0  0  0  0  0  0
  -20.9012   -4.8184  -29.3564 N   0  0  0  0  0  0
  -20.9342   -5.4314  -30.6955 C   0  0  1  0  0  0
  -21.2982   -4.3408  -31.7454 C   0  0  0  0  0  0
  -22.7967   -3.8620  -31.7923 C   0  0  2  0  0  0
  -22.9615   -2.5658  -32.5784 C   0  0  0  0  0  0
  -22.8839   -1.4750  -31.5249 C   0  0  0  0  0  0
  -23.4147   -2.1534  -30.3559 N   0  0  0  0  0  0
  -23.4037   -3.4934  -30.4191 C   0  0  0  0  0  0
  -23.8140   -4.2762  -29.5673 O   0  0  0  0  0  0
  -19.5777   -6.1329  -30.9445 C   0  0  0  0  0  0
  -18.6124   -5.9249  -30.1979 O   0  0  0  0  0  0
  -19.4554   -7.1168  -32.0286 C   0  0  0  0  0  0
  -20.3189   -7.3460  -32.9852 N   0  0  0  0  0  0
  -19.9073   -8.3540  -33.8072 C   0  0  0  0  0  0
  -20.6120   -8.8087  -34.9319 C   0  0  0  0  0  0
  -20.0691   -9.8534  -35.6833 C   0  0  0  0  0  0
  -18.8531  -10.4378  -35.3326 C   0  0  0  0  0  0
  -18.1224   -9.9939  -34.2293 C   0  0  0  0  0  0
  -18.6606   -8.9437  -33.4739 C   0  0  0  0  0  0
  -18.0166   -8.1370  -32.0587 S   0  0  0  0  0  0
  -25.9259   -2.7500  -26.9510 C   0  0  0  0  0  0
  -28.7100   -2.9502  -29.9605 H   0  0  0  0  0  0
  -28.3849   -1.2129  -29.7980 H   0  0  0  0  0  0
  -27.5584   -2.1352  -31.0055 H   0  0  0  0  0  0
  -28.9715   -1.4596  -27.7261 H   0  0  0  0  0  0
  -28.9480   -0.9371  -25.3945 H   0  0  0  0  0  0
  -27.0125   -1.5719  -23.9571 H   0  0  0  0  0  0
  -25.2784   -2.8903  -23.7409 H   0  0  0  0  0  0
  -24.6204   -4.9259  -25.3515 H   0  0  0  0  0  0
  -23.6115   -4.3771  -24.0562 H   0  0  0  0  0  0
  -22.4763   -5.6856  -26.0613 H   0  0  0  0  0  0
  -20.6383   -3.6147  -27.2128 H   0  0  0  0  0  0
  -18.8651   -5.2229  -26.5249 H   0  0  0  0  0  0
  -20.0078   -6.1969  -25.6510 H   0  0  0  0  0  0
  -19.6696   -3.2297  -25.1048 H   0  0  0  0  0  0
  -18.2031   -3.7367  -23.3695 H   0  0  0  0  0  0
  -18.0253   -5.4271  -23.8210 H   0  0  0  0  0  0
  -17.4270   -4.1370  -24.9014 H   0  0  0  0  0  0
  -20.1597   -4.5367  -22.6386 H   0  0  0  0  0  0
  -21.2807   -3.5594  -23.5392 H   0  0  0  0  0  0
  -21.2672   -5.3129  -23.7604 H   0  0  0  0  0  0
  -20.9125   -3.8089  -29.3336 H   0  0  0  0  0  0
  -21.7277   -6.1849  -30.7072 H   0  0  0  0  0  0
  -21.0534   -4.6994  -32.7457 H   0  0  0  0  0  0
  -20.6484   -3.4781  -31.5943 H   0  0  0  0  0  0
  -23.4193   -4.6341  -32.2417 H   0  0  0  0  0  0
  -23.9589   -2.5442  -33.0152 H   0  0  0  0  0  0
  -22.2503   -2.4272  -33.3940 H   0  0  0  0  0  0
  -23.5031   -0.6159  -31.7861 H   0  0  0  0  0  0
  -21.8639   -1.1347  -31.3345 H   0  0  0  0  0  0
  -23.6661   -1.6644  -29.5092 H   0  0  0  0  0  0
  -21.5465   -8.3572  -35.2251 H   0  0  0  0  0  0
  -20.5961  -10.2097  -36.5565 H   0  0  0  0  0  0
  -18.4619  -11.2416  -35.9395 H   0  0  0  0  0  0
  -17.1746  -10.4425  -33.9701 H   0  0  0  0  0  0
  -25.0886   -3.2345  -27.4248 H   0  0  0  0  0  0
  1  2  1  0  0  0
  1 41  1  0  0  0
  1 42  1  0  0  0
  1 43  1  0  0  0
  2  3  1  0  0  0
  3 40  1  0  0  0
  3  4  2  0  0  0
  4  5  1  0  0  0
  4 44  1  0  0  0
  5  6  2  0  0  0
  5 45  1  0  0  0
  6  7  1  0  0  0
  6 46  1  0  0  0
  7  8  1  0  0  0
  7 40  2  0  0  0
  8  9  1  0  0  0
  8 47  1  0  0  0
  9 10  1  0  0  0
  9 48  1  0  0  0
  9 49  1  0  0  0
 10 11  2  0  0  0
 10 12  1  0  0  0
 12 13  1  0  0  0
 12 50  1  0  0  0
 13 14  1  0  0  0
 13 18  1  0  0  0
 13 51  1  0  0  0
 14 15  1  0  0  0
 14 52  1  0  0  0
 14 53  1  0  0  0
 15 16  1  0  0  0
 15 17  1  0  0  0
 15 54  1  0  0  0
 16 55  1  0  0  0
 16 56  1  0  0  0
 16 57  1  0  0  0
 17 58  1  0  0  0
 17 59  1  0  0  0
 17 60  1  0  0  0
 18 19  2  0  0  0
 18 20  1  0  0  0
 20 21  1  0  0  0
 20 61  1  0  0  0
 21 22  1  0  0  0
 21 29  1  0  0  0
 21 62  1  0  0  0
 22 23  1  0  0  0
 22 63  1  0  0  0
 22 64  1  0  0  0
 23 27  1  0  0  0
 23 24  1  0  0  0
 23 65  1  0  0  0
 24 25  1  0  0  0
 24 66  1  0  0  0
 24 67  1  0  0  0
 25 26  1  0  0  0
 25 68  1  0  0  0
 25 69  1  0  0  0
 26 27  1  0  0  0
 26 70  1  0  0  0
 27 28  2  0  0  0
 29 30  2  0  0  0
 29 31  1  0  0  0
 31 39  1  0  0  0
 31 32  2  0  0  0
 32 33  1  0  0  0
 33 38  2  0  0  0
 33 34  1  0  0  0
 34 35  2  0  0  0
 34 71  1  0  0  0
 35 36  1  0  0  0
 35 72  1  0  0  0
 36 37  2  0  0  0
 36 73  1  0  0  0
 37 38  1  0  0  0
 37 74  1  0  0  0
 38 39  1  0  0  0
 40 75  1  0  0  0
M  END
$$$$
