
                    3D
 Schrodinger Suite 2019-4.
 86 88  0  0  1  0            999 V2000
  -24.4355   -6.0458  -21.3650 C   0  0  0  0  0  0
  -24.9725   -4.8946  -22.2321 C   0  0  0  0  0  0
  -24.3437   -3.6560  -21.8970 O   0  0  0  0  0  0
  -23.0719   -3.2865  -22.2445 C   0  0  0  0  0  0
  -22.5237   -2.3378  -21.6918 O   0  0  0  0  0  0
  -22.3887   -4.0733  -23.2697 C   0  0  0  0  0  0
  -21.0875   -3.8842  -23.5759 C   0  0  0  0  0  0
  -20.3689   -4.6809  -24.6387 C   0  0  2  0  0  0
  -18.8368   -4.5986  -24.5529 C   0  0  0  0  0  0
  -18.1278   -5.6337  -25.4612 C   0  0  2  0  0  0
  -18.3115   -7.0912  -25.0538 C   0  0  0  0  0  0
  -17.0225   -7.7569  -25.4899 C   0  0  0  0  0  0
  -16.0834   -6.6470  -25.4875 N   0  0  0  0  0  0
  -16.6179   -5.4180  -25.4816 C   0  0  0  0  0  0
  -16.0280   -4.3402  -25.5220 O   0  0  0  0  0  0
  -20.8288   -4.2709  -25.9586 N   0  0  0  0  0  0
  -21.2357   -5.1224  -26.9044 C   0  0  0  0  0  0
  -21.3469   -6.3396  -26.7381 O   0  0  0  0  0  0
  -21.5882   -4.4848  -28.2515 C   0  0  2  0  0  0
  -23.0436   -3.9834  -28.2121 C   0  0  0  0  0  0
  -23.5648   -3.3255  -29.4742 C   0  0  0  0  0  0
  -22.7353   -2.5570  -30.3175 C   0  0  0  0  0  0
  -23.2611   -1.9404  -31.4413 C   0  0  0  0  0  0
  -24.6230   -2.0215  -31.7047 C   0  0  0  0  0  0
  -25.4634   -2.7050  -30.8414 C   0  0  0  0  0  0
  -24.9436   -3.3447  -29.7273 C   0  0  0  0  0  0
  -21.4000   -5.4537  -29.3331 N   0  0  0  0  0  0
  -20.1933   -5.7702  -29.8368 C   0  0  0  0  0  0
  -19.1589   -5.1783  -29.5212 O   0  0  0  0  0  0
  -20.1421   -6.9744  -30.8090 C   0  0  1  0  0  0
  -19.3281   -6.6553  -31.9983 N   0  0  0  0  0  0
  -19.8999   -6.6226  -33.2572 C   0  0  0  0  0  0
  -21.0998   -6.7394  -33.5145 O   0  0  0  0  0  0
  -18.9461   -6.3981  -34.1827 O   0  0  0  0  0  0
  -19.2672   -6.3904  -35.5739 C   0  0  0  0  0  0
  -19.3037   -7.8031  -36.1402 C   0  0  0  0  0  0
  -18.1187   -8.4409  -36.5115 C   0  0  0  0  0  0
  -18.1580   -9.7287  -37.0408 C   0  0  0  0  0  0
  -19.3836  -10.3732  -37.1949 C   0  0  0  0  0  0
  -20.5710   -9.7411  -36.8278 C   0  0  0  0  0  0
  -20.5290   -8.4553  -36.2982 C   0  0  0  0  0  0
  -19.5540   -8.2142  -30.0542 C   0  0  0  0  0  0
  -18.1113   -8.0633  -29.5208 C   0  0  0  0  0  0
  -19.6587   -9.4884  -30.9134 C   0  0  0  0  0  0
  -24.8997   -6.9921  -21.6499 H   0  0  0  0  0  0
  -23.3542   -6.1655  -21.4612 H   0  0  0  0  0  0
  -24.6591   -5.8709  -20.3115 H   0  0  0  0  0  0
  -26.0396   -4.7819  -22.0443 H   0  0  0  0  0  0
  -24.8903   -5.1315  -23.2918 H   0  0  0  0  0  0
  -22.9428   -4.8224  -23.8143 H   0  0  0  0  0  0
  -20.4984   -3.1364  -23.0642 H   0  0  0  0  0  0
  -20.6531   -5.7188  -24.4313 H   0  0  0  0  0  0
  -18.5265   -4.7577  -23.5233 H   0  0  0  0  0  0
  -18.5220   -3.5832  -24.8010 H   0  0  0  0  0  0
  -18.4456   -5.4808  -26.4954 H   0  0  0  0  0  0
  -19.1911   -7.5614  -25.4956 H   0  0  0  0  0  0
  -18.4175   -7.1715  -23.9696 H   0  0  0  0  0  0
  -17.0901   -8.1818  -26.4920 H   0  0  0  0  0  0
  -16.7106   -8.5387  -24.7977 H   0  0  0  0  0  0
  -15.0909   -6.7894  -25.6672 H   0  0  0  0  0  0
  -20.7644   -3.2852  -26.1787 H   0  0  0  0  0  0
  -20.9224   -3.6355  -28.4058 H   0  0  0  0  0  0
  -23.1600   -3.2620  -27.4001 H   0  0  0  0  0  0
  -23.7023   -4.8179  -27.9655 H   0  0  0  0  0  0
  -21.6874   -2.4576  -30.1077 H   0  0  0  0  0  0
  -22.6037   -1.3974  -32.1035 H   0  0  0  0  0  0
  -25.0420   -1.5429  -32.5752 H   0  0  0  0  0  0
  -26.5226   -2.7376  -31.0410 H   0  0  0  0  0  0
  -25.6117   -3.8727  -29.0600 H   0  0  0  0  0  0
  -22.2167   -5.9787  -29.6091 H   0  0  0  0  0  0
  -21.1724   -7.2211  -31.0827 H   0  0  0  0  0  0
  -18.3424   -6.4400  -31.8935 H   0  0  0  0  0  0
  -18.5232   -5.8134  -36.1161 H   0  0  0  0  0  0
  -20.2180   -5.8909  -35.7651 H   0  0  0  0  0  0
  -17.1700   -7.9426  -36.3858 H   0  0  0  0  0  0
  -17.2406  -10.2218  -37.3269 H   0  0  0  0  0  0
  -19.4136  -11.3733  -37.6012 H   0  0  0  0  0  0
  -21.5204  -10.2423  -36.9519 H   0  0  0  0  0  0
  -21.4479   -7.9603  -36.0155 H   0  0  0  0  0  0
  -20.1842   -8.3945  -29.1815 H   0  0  0  0  0  0
  -17.7301   -9.0057  -29.1272 H   0  0  0  0  0  0
  -17.4215   -7.7330  -30.2949 H   0  0  0  0  0  0
  -18.0705   -7.3479  -28.6998 H   0  0  0  0  0  0
  -19.3552  -10.3723  -30.3551 H   0  0  0  0  0  0
  -20.6826   -9.6520  -31.2509 H   0  0  0  0  0  0
  -19.0273   -9.4235  -31.8005 H   0  0  0  0  0  0
  1  2  1  0  0  0
  1 45  1  0  0  0
  1 46  1  0  0  0
  1 47  1  0  0  0
  2  3  1  0  0  0
  2 48  1  0  0  0
  2 49  1  0  0  0
  3  4  1  0  0  0
  4  5  2  0  0  0
  4  6  1  0  0  0
  6  7  2  0  0  0
  6 50  1  0  0  0
  7  8  1  0  0  0
  7 51  1  0  0  0
  8  9  1  0  0  0
  8 16  1  0  0  0
  8 52  1  0  0  0
  9 10  1  0  0  0
  9 53  1  0  0  0
  9 54  1  0  0  0
 10 14  1  0  0  0
 10 11  1  0  0  0
 10 55  1  0  0  0
 11 12  1  0  0  0
 11 56  1  0  0  0
 11 57  1  0  0  0
 12 13  1  0  0  0
 12 58  1  0  0  0
 12 59  1  0  0  0
 13 14  1  0  0  0
 13 60  1  0  0  0
 14 15  2  0  0  0
 16 17  1  0  0  0
 16 61  1  0  0  0
 17 18  2  0  0  0
 17 19  1  0  0  0
 19 20  1  0  0  0
 19 27  1  0  0  0
 19 62  1  0  0  0
 20 21  1  0  0  0
 20 63  1  0  0  0
 20 64  1  0  0  0
 21 26  1  0  0  0
 21 22  2  0  0  0
 22 23  1  0  0  0
 22 65  1  0  0  0
 23 24  2  0  0  0
 23 66  1  0  0  0
 24 25  1  0  0  0
 24 67  1  0  0  0
 25 26  2  0  0  0
 25 68  1  0  0  0
 26 69  1  0  0  0
 27 28  1  0  0  0
 27 70  1  0  0  0
 28 29  2  0  0  0
 28 30  1  0  0  0
 30 31  1  0  0  0
 30 42  1  0  0  0
 30 71  1  0  0  0
 31 32  1  0  0  0
 31 72  1  0  0  0
 32 33  2  0  0  0
 32 34  1  0  0  0
 34 35  1  0  0  0
 35 36  1  0  0  0
 35 73  1  0  0  0
 35 74  1  0  0  0
 36 41  1  0  0  0
 36 37  2  0  0  0
 37 38  1  0  0  0
 37 75  1  0  0  0
 38 39  2  0  0  0
 38 76  1  0  0  0
 39 40  1  0  0  0
 39 77  1  0  0  0
 40 41  2  0  0  0
 40 78  1  0  0  0
 41 79  1  0  0  0
 42 43  1  0  0  0
 42 44  1  0  0  0
 42 80  1  0  0  0
 43 81  1  0  0  0
 43 82  1  0  0  0
 43 83  1  0  0  0
 44 84  1  0  0  0
 44 85  1  0  0  0
 44 86  1  0  0  0
M  END
$$$$
