@<TRIPOS>MOLECULE
*****
 86 88 0 0 0
SMALL
GASTEIGER
****
Schrodinger Suite 2019-4.
@<TRIPOS>ATOM
      1 C         -24.4355   -6.0458  -21.3650 C.3     1  UNL1       -0.0306
      2 C         -24.9725   -4.8946  -22.2321 C.3     1  UNL1        0.0900
      3 O         -24.3437   -3.6560  -21.8970 O.3     1  UNL1       -0.4618
      4 C         -23.0719   -3.2865  -22.2445 C.2     1  UNL1        0.3317
      5 O         -22.5237   -2.3378  -21.6918 O.2     1  UNL1       -0.2456
      6 C         -22.3887   -4.0733  -23.2697 C.2     1  UNL1        0.0203
      7 C         -21.0875   -3.8842  -23.5759 C.2     1  UNL1       -0.0572
      8 C         -20.3689   -4.6809  -24.6387 C.3     1  UNL1        0.0427
      9 C         -18.8368   -4.5986  -24.5529 C.3     1  UNL1       -0.0197
     10 C         -18.1278   -5.6337  -25.4612 C.3     1  UNL1        0.0389
     11 C         -18.3115   -7.0912  -25.0538 C.3     1  UNL1       -0.0262
     12 C         -17.0225   -7.7569  -25.4899 C.3     1  UNL1        0.0123
     13 N         -16.0834   -6.6470  -25.4875 N.am    1  UNL1       -0.3151
     14 C         -16.6179   -5.4180  -25.4816 C.2     1  UNL1        0.2162
     15 O         -16.0280   -4.3402  -25.5220 O.2     1  UNL1       -0.2755
     16 N         -20.8288   -4.2709  -25.9586 N.am    1  UNL1       -0.3075
     17 C         -21.2357   -5.1224  -26.9044 C.2     1  UNL1        0.2341
     18 O         -21.3469   -6.3396  -26.7381 O.2     1  UNL1       -0.2738
     19 C         -21.5882   -4.4848  -28.2515 C.3     1  UNL1        0.1034
     20 C         -23.0436   -3.9834  -28.2121 C.3     1  UNL1       -0.0007
     21 C         -23.5648   -3.3255  -29.4742 C.ar    1  UNL1       -0.0451
     22 C         -22.7353   -2.5570  -30.3175 C.ar    1  UNL1       -0.0585
     23 C         -23.2611   -1.9404  -31.4413 C.ar    1  UNL1       -0.0615
     24 C         -24.6230   -2.0215  -31.7047 C.ar    1  UNL1       -0.0617
     25 C         -25.4634   -2.7050  -30.8414 C.ar    1  UNL1       -0.0615
     26 C         -24.9436   -3.3447  -29.7273 C.ar    1  UNL1       -0.0585
     27 N         -21.4000   -5.4537  -29.3331 N.am    1  UNL1       -0.3022
     28 C         -20.1933   -5.7702  -29.8368 C.2     1  UNL1        0.2343
     29 O         -19.1589   -5.1783  -29.5212 O.2     1  UNL1       -0.2738
     30 C         -20.1421   -6.9744  -30.8090 C.3     1  UNL1        0.1048
     31 N         -19.3281   -6.6553  -31.9983 N.am    1  UNL1       -0.2696
     32 C         -19.8999   -6.6226  -33.2572 C.2     1  UNL1        0.4012
     33 O         -21.0998   -6.7394  -33.5145 O.2     1  UNL1       -0.2265
     34 O         -18.9461   -6.3981  -34.1827 O.3     1  UNL1       -0.4456
     35 C         -19.2672   -6.3904  -35.5739 C.3     1  UNL1        0.1191
     36 C         -19.3037   -7.8031  -36.1402 C.ar    1  UNL1       -0.0103
     37 C         -18.1187   -8.4409  -36.5115 C.ar    1  UNL1       -0.0554
     38 C         -18.1580   -9.7287  -37.0408 C.ar    1  UNL1       -0.0614
     39 C         -19.3836  -10.3732  -37.1949 C.ar    1  UNL1       -0.0617
     40 C         -20.5710   -9.7411  -36.8278 C.ar    1  UNL1       -0.0614
     41 C         -20.5290   -8.4553  -36.2982 C.ar    1  UNL1       -0.0554
     42 C         -19.5540   -8.2142  -30.0542 C.3     1  UNL1       -0.0196
     43 C         -18.1113   -8.0633  -29.5208 C.3     1  UNL1       -0.0605
     44 C         -19.6587   -9.4884  -30.9134 C.3     1  UNL1       -0.0605
     45 H         -24.8997   -6.9921  -21.6499 H       1  UNL1        0.0262
     46 H         -23.3542   -6.1655  -21.4612 H       1  UNL1        0.0262
     47 H         -24.6591   -5.8709  -20.3115 H       1  UNL1        0.0262
     48 H         -26.0396   -4.7819  -22.0443 H       1  UNL1        0.0695
     49 H         -24.8903   -5.1315  -23.2918 H       1  UNL1        0.0695
     50 H         -22.9428   -4.8224  -23.8143 H       1  UNL1        0.0686
     51 H         -20.4984   -3.1364  -23.0642 H       1  UNL1        0.0593
     52 H         -20.6531   -5.7188  -24.4313 H       1  UNL1        0.0543
     53 H         -18.5265   -4.7577  -23.5233 H       1  UNL1        0.0293
     54 H         -18.5220   -3.5832  -24.8010 H       1  UNL1        0.0293
     55 H         -18.4456   -5.4808  -26.4954 H       1  UNL1        0.0395
     56 H         -19.1911   -7.5614  -25.4956 H       1  UNL1        0.0288
     57 H         -18.4175   -7.1715  -23.9696 H       1  UNL1        0.0288
     58 H         -17.0901   -8.1818  -26.4920 H       1  UNL1        0.0462
     59 H         -16.7106   -8.5387  -24.7977 H       1  UNL1        0.0462
     60 H         -15.0909   -6.7894  -25.6672 H       1  UNL1        0.1487
     61 H         -20.7644   -3.2852  -26.1787 H       1  UNL1        0.1493
     62 H         -20.9224   -3.6355  -28.4058 H       1  UNL1        0.0598
     63 H         -23.1600   -3.2620  -27.4001 H       1  UNL1        0.0336
     64 H         -23.7023   -4.8179  -27.9655 H       1  UNL1        0.0336
     65 H         -21.6874   -2.4576  -30.1077 H       1  UNL1        0.0620
     66 H         -22.6037   -1.3974  -32.1035 H       1  UNL1        0.0618
     67 H         -25.0420   -1.5429  -32.5752 H       1  UNL1        0.0618
     68 H         -26.5226   -2.7376  -31.0410 H       1  UNL1        0.0618
     69 H         -25.6117   -3.8727  -29.0600 H       1  UNL1        0.0620
     70 H         -22.2167   -5.9787  -29.6091 H       1  UNL1        0.1495
     71 H         -21.1724   -7.2211  -31.0827 H       1  UNL1        0.0598
     72 H         -18.3424   -6.4400  -31.8935 H       1  UNL1        0.1528
     73 H         -18.5232   -5.8134  -36.1161 H       1  UNL1        0.0749
     74 H         -20.2180   -5.8909  -35.7651 H       1  UNL1        0.0749
     75 H         -17.1700   -7.9426  -36.3858 H       1  UNL1        0.0621
     76 H         -17.2406  -10.2218  -37.3269 H       1  UNL1        0.0618
     77 H         -19.4136  -11.3733  -37.6012 H       1  UNL1        0.0618
     78 H         -21.5204  -10.2423  -36.9519 H       1  UNL1        0.0618
     79 H         -21.4479   -7.9603  -36.0155 H       1  UNL1        0.0621
     80 H         -20.1842   -8.3945  -29.1815 H       1  UNL1        0.0318
     81 H         -17.7301   -9.0057  -29.1272 H       1  UNL1        0.0233
     82 H         -17.4215   -7.7330  -30.2949 H       1  UNL1        0.0233
     83 H         -18.0705   -7.3479  -28.6998 H       1  UNL1        0.0233
     84 H         -19.3552  -10.3723  -30.3551 H       1  UNL1        0.0233
     85 H         -20.6826   -9.6520  -31.2509 H       1  UNL1        0.0233
     86 H         -19.0273   -9.4235  -31.8005 H       1  UNL1        0.0233
@<TRIPOS>BOND
     1     1     2    1
     2     1    45    1
     3     1    46    1
     4     1    47    1
     5     2     3    1
     6     2    48    1
     7     2    49    1
     8     3     4    1
     9     4     5    2
    10     4     6    1
    11     6     7    2
    12     6    50    1
    13     7     8    1
    14     7    51    1
    15     8     9    1
    16     8    16    1
    17     8    52    1
    18     9    10    1
    19     9    53    1
    20     9    54    1
    21    10    14    1
    22    10    11    1
    23    10    55    1
    24    11    12    1
    25    11    56    1
    26    11    57    1
    27    12    13    1
    28    12    58    1
    29    12    59    1
    30    13    14   am
    31    13    60    1
    32    14    15    2
    33    16    17   am
    34    16    61    1
    35    17    18    2
    36    17    19    1
    37    19    20    1
    38    19    27    1
    39    19    62    1
    40    20    21    1
    41    20    63    1
    42    20    64    1
    43    21    26   ar
    44    21    22   ar
    45    22    23   ar
    46    22    65    1
    47    23    24   ar
    48    23    66    1
    49    24    25   ar
    50    24    67    1
    51    25    26   ar
    52    25    68    1
    53    26    69    1
    54    27    28   am
    55    27    70    1
    56    28    29    2
    57    28    30    1
    58    30    31    1
    59    30    42    1
    60    30    71    1
    61    31    32   am
    62    31    72    1
    63    32    33    2
    64    32    34    1
    65    34    35    1
    66    35    36    1
    67    35    73    1
    68    35    74    1
    69    36    41   ar
    70    36    37   ar
    71    37    38   ar
    72    37    75    1
    73    38    39   ar
    74    38    76    1
    75    39    40   ar
    76    39    77    1
    77    40    41   ar
    78    40    78    1
    79    41    79    1
    80    42    43    1
    81    42    44    1
    82    42    80    1
    83    43    81    1
    84    43    82    1
    85    43    83    1
    86    44    84    1
    87    44    85    1
    88    44    86    1
