@<TRIPOS>MOLECULE
/home/lixiaoshuang.lxs/med/data/m_pro/PDB_BA/2gz8/2gz8_ligand.pdb
 25 27 0 0 0
SMALL
GASTEIGER

@<TRIPOS>ATOM
      1  CAA      -24.7560  -35.0310    5.5060 C.ar  307  F3F307      0.0082
      2  CAB      -25.2490  -34.4890    6.7000 C.ar  307  F3F307      0.0006
      3  CAC      -25.8940  -35.3120    7.6310 C.ar  307  F3F307      0.0000
      4  CAD      -26.0460  -36.6780    7.3640 C.ar  307  F3F307      0.0006
      5  CAE      -25.5570  -37.2210    6.1650 C.ar  307  F3F307      0.0082
      6  CAF      -24.9120  -36.4010    5.2340 C.ar  307  F3F307      0.0421
      7  CAG      -24.3950  -36.9560    4.0080 C.1   307  F3F307     -0.0568
      8  CAH      -23.9760  -37.5160    2.9550 C.1   307  F3F307     -0.0225
      9  CAI      -23.3130  -37.9580    1.7540 C.ar  307  F3F307      0.1873
     10  OAM      -22.2450  -38.8630    1.8760 O.2   307  F3F307     -0.4416
     11  CAJ      -23.4840  -37.6320    0.4720 C.ar  307  F3F307      0.0494
     12  CAK      -22.6020  -38.3260   -0.2710 C.ar  307  F3F307      0.0452
     13  CAL      -21.8780  -39.0890    0.5440 C.ar  307  F3F307      0.1914
     14  CAN      -20.7490  -40.0400    0.1400 C.2   307  F3F307      0.2635
     15  OAY      -20.3180  -40.0490   -1.0160 O.2   307  F3F307     -0.2759
     16  SAO      -20.0150  -41.1560    1.3150 S.3   307  F3F307      0.0104
     17  CAP      -20.9140  -42.5960    0.8640 C.2   307  F3F307      0.2683
     18  NAT      -20.5730  -43.8360    1.1650 N.2   307  F3F307     -0.3504
     19  CAS      -21.5560  -44.5860    0.6630 C.2   307  F3F307      0.3069
     20  CAU      -21.6240  -46.1000    0.8380 C.3   307  F3F307      0.4660
     21  FAW      -22.3500  -46.7400   -0.0980 F     307  F3F307     -0.1623
     22  FAX      -20.3730  -46.5440    0.7750 F     307  F3F307     -0.1623
     23  FAV      -22.1450  -46.3600    2.0590 F     307  F3F307     -0.1623
     24  NAR      -22.4380  -43.7950    0.0590 N.2   307  F3F307     -0.1083
     25  NAQ      -22.0550  -42.6210    0.1760 N.2   307  F3F307     -0.1060
@<TRIPOS>BOND
     1    15    14    2
     2    12    11   ar
     3    12    13   ar
     4    21    20    1
     5    24    25    2
     6    24    19    1
     7    14    13    1
     8    14    16    1
     9    25    17    1
    10    11     9   ar
    11    13    10   ar
    12    19    20    1
    13    19    18    2
    14    22    20    1
    15    20    23    1
    16    17    18    2
    17    17    16    1
    18     9    10   ar
    19     9     8    1
    20     8     7    3
    21     7     6    1
    22     6     1   ar
    23     6     5   ar
    24     1     2   ar
    25     5     4   ar
    26     2     3   ar
    27     4     3   ar
