@<TRIPOS>MOLECULE
*****
 97 97 0 0 0
SMALL
GASTEIGER
****
Schrodinger Suite 2019-4.
@<TRIPOS>ATOM
      1 C         -22.7831   -1.4139  -21.6104 C.3     1  UNL1       -0.0306
      2 C         -23.5301   -1.0019  -22.9057 C.3     1  UNL1        0.0900
      3 O         -23.2752   -1.9463  -23.8998 O.3     1  UNL1       -0.4618
      4 C         -23.6449   -3.2078  -23.6862 C.2     1  UNL1        0.3317
      5 O         -24.6646   -3.5446  -23.0851 O.2     1  UNL1       -0.2456
      6 C         -22.6387   -4.1424  -24.1783 C.2     1  UNL1        0.0203
      7 C         -21.5050   -3.7180  -24.7648 C.2     1  UNL1       -0.0572
      8 C         -20.5495   -4.6388  -25.4604 C.3     1  UNL1        0.0427
      9 C         -19.0668   -4.3421  -25.1557 C.3     1  UNL1       -0.0197
     10 C         -18.1235   -5.4376  -25.6898 C.3     1  UNL1        0.0389
     11 C         -18.2847   -6.8045  -25.0030 C.3     1  UNL1       -0.0262
     12 C         -16.8765   -7.4013  -24.9503 C.3     1  UNL1        0.0123
     13 N         -16.0116   -6.2524  -25.0649 N.am    1  UNL1       -0.3151
     14 C         -16.6454   -5.1598  -25.4757 C.2     1  UNL1        0.2162
     15 O         -16.1125   -4.0822  -25.7054 O.2     1  UNL1       -0.2755
     16 N         -20.8309   -4.5307  -26.8855 N.am    1  UNL1       -0.3088
     17 C         -21.9700   -4.9637  -27.4558 C.2     1  UNL1        0.2173
     18 O         -22.9887   -5.2735  -26.8353 O.2     1  UNL1       -0.2755
     19 C         -21.9164   -5.2141  -28.9584 C.3     1  UNL1        0.0457
     20 C         -23.1740   -4.6440  -29.6546 C.3     1  UNL1       -0.0230
     21 C         -23.2489   -3.1263  -29.5810 C.2     1  UNL1       -0.0846
     22 C         -23.4922   -2.2744  -30.5949 C.2     1  UNL1       -0.0796
     23 C         -23.8066   -2.6870  -32.0216 C.3     1  UNL1       -0.0440
     24 C         -23.4600   -0.7772  -30.3844 C.3     1  UNL1       -0.0440
     25 C         -21.8022   -6.7398  -29.1777 C.3     1  UNL1        0.0191
     26 C         -20.4247   -7.3454  -28.8252 C.2     1  UNL1        0.1543
     27 O         -19.8862   -7.0881  -27.7586 O.2     1  UNL1       -0.2954
     28 C         -19.7562   -8.3102  -29.7988 C.3     1  UNL1        0.0838
     29 N         -19.4041   -7.6050  -31.0255 N.am    1  UNL1       -0.3038
     30 C         -20.1926   -7.4370  -32.0897 C.2     1  UNL1        0.2363
     31 O         -21.3239   -7.9094  -32.1827 O.2     1  UNL1       -0.2737
     32 CA        -19.6251   -6.6283  -33.2392 C.3     1  UNL1        0.1253
     33 C         -20.6103   -5.4589  -33.4821 C.3     1  UNL1        0.0712
     34 O         -20.1972   -4.6411  -34.5539 O.3     1  UNL1       -0.3927
     35 N         -19.6379   -7.5743  -34.3422 N.am    1  UNL1       -0.2676
     36 C         -18.5855   -8.3789  -34.7316 C.2     1  UNL1        0.4014
     37 O         -17.4480   -8.3532  -34.2631 O.2     1  UNL1       -0.2264
     38 O         -19.0137   -9.1434  -35.7647 O.3     1  UNL1       -0.4447
     39 C         -18.1623   -9.9572  -36.5821 C.3     1  UNL1        0.1068
     40 C         -17.3919  -11.0102  -35.7578 C.3     1  UNL1       -0.0253
     41 C         -17.2142   -9.0715  -37.4083 C.3     1  UNL1       -0.0253
     42 C         -19.1240  -10.6942  -37.5299 C.3     1  UNL1       -0.0253
     43 C         -20.4592   -9.6922  -29.9729 C.3     1  UNL1       -0.0214
     44 C         -20.6945  -10.4373  -28.6459 C.3     1  UNL1       -0.0606
     45 C         -19.6919  -10.6146  -30.9379 C.3     1  UNL1       -0.0606
     46 H         -22.5664   -0.5849  -20.9439 H       1  UNL1        0.0262
     47 H         -23.3699   -2.1358  -21.0440 H       1  UNL1        0.0262
     48 H         -21.8271   -1.8845  -21.8354 H       1  UNL1        0.0262
     49 H         -23.2018   -0.0224  -23.2450 H       1  UNL1        0.0695
     50 H         -24.6102   -0.9706  -22.8255 H       1  UNL1        0.0695
     51 H         -22.8589   -5.1986  -24.1040 H       1  UNL1        0.0686
     52 H         -21.2548   -2.6766  -24.8320 H       1  UNL1        0.0593
     53 H         -20.7769   -5.6584  -25.1416 H       1  UNL1        0.0543
     54 H         -18.9237   -4.2331  -24.0790 H       1  UNL1        0.0293
     55 H         -18.7813   -3.3927  -25.6033 H       1  UNL1        0.0293
     56 H         -18.2375   -5.5345  -26.7676 H       1  UNL1        0.0395
     57 H         -18.9811   -7.4734  -25.5024 H       1  UNL1        0.0288
     58 H         -18.6589   -6.6719  -23.9889 H       1  UNL1        0.0288
     59 H         -16.6805   -8.0571  -25.7961 H       1  UNL1        0.0462
     60 H         -16.6953   -7.9582  -24.0319 H       1  UNL1        0.0462
     61 H         -15.0125   -6.3097  -24.9091 H       1  UNL1        0.1487
     62 H         -20.0553   -4.3023  -27.4895 H       1  UNL1        0.1493
     63 H         -21.0364   -4.7227  -29.3811 H       1  UNL1        0.0401
     64 H         -24.0844   -5.0543  -29.2158 H       1  UNL1        0.0315
     65 H         -23.1662   -4.9822  -30.6870 H       1  UNL1        0.0315
     66 H         -23.0732   -2.7057  -28.6006 H       1  UNL1        0.0572
     67 H         -24.7013   -2.1630  -32.3515 H       1  UNL1        0.0274
     68 H         -22.9867   -2.4094  -32.6841 H       1  UNL1        0.0274
     69 H         -24.0036   -3.7479  -32.1503 H       1  UNL1        0.0274
     70 H         -22.8102   -0.3077  -31.1222 H       1  UNL1        0.0274
     71 H         -24.4600   -0.3601  -30.4855 H       1  UNL1        0.0274
     72 H         -23.0705   -0.5228  -29.4003 H       1  UNL1        0.0274
     73 H         -22.0582   -6.9637  -30.2055 H       1  UNL1        0.0350
     74 H         -22.5591   -7.2555  -28.5892 H       1  UNL1        0.0350
     75 H         -18.7779   -8.5385  -29.3786 H       1  UNL1        0.0580
     76 H         -18.4712   -7.2182  -31.0744 H       1  UNL1        0.1495
     77 HA        -18.6208   -6.2587  -33.0305 H       1  UNL1        0.0619
     78 H1        -20.6654   -4.8234  -32.5968 H       1  UNL1        0.0580
     79 H2        -21.6251   -5.8033  -33.6696 H       1  UNL1        0.0580
     80 H         -19.3399   -4.2945  -34.3556 H       1  UNL1        0.2095
     81 H         -20.4898   -7.6765  -34.8777 H       1  UNL1        0.1529
     82 H         -16.8090  -11.6642  -36.4085 H       1  UNL1        0.0268
     83 H         -16.6928  -10.5717  -35.0500 H       1  UNL1        0.0268
     84 H         -18.0732  -11.6377  -35.1836 H       1  UNL1        0.0268
     85 H         -16.6281   -9.6635  -38.1119 H       1  UNL1        0.0268
     86 H         -17.7561   -8.3202  -37.9755 H       1  UNL1        0.0268
     87 H         -16.5188   -8.5425  -36.7665 H       1  UNL1        0.0268
     88 H         -18.5850  -11.3021  -38.2578 H       1  UNL1        0.0268
     89 H         -19.7923  -11.3565  -36.9785 H       1  UNL1        0.0268
     90 H         -19.7527  -10.0006  -38.0855 H       1  UNL1        0.0268
     91 H         -21.4556   -9.5310  -30.3805 H       1  UNL1        0.0317
     92 H         -21.3275  -11.3108  -28.8065 H       1  UNL1        0.0233
     93 H         -19.7630  -10.8002  -28.2196 H       1  UNL1        0.0233
     94 H         -21.1859   -9.8217  -27.8961 H       1  UNL1        0.0233
     95 H         -20.1769  -11.5868  -31.0175 H       1  UNL1        0.0233
     96 H         -19.6361  -10.2059  -31.9455 H       1  UNL1        0.0233
     97 H         -18.6717  -10.7867  -30.5964 H       1  UNL1        0.0233
@<TRIPOS>BOND
     1     1     2    1
     2     1    46    1
     3     1    47    1
     4     1    48    1
     5     2     3    1
     6     2    49    1
     7     2    50    1
     8     3     4    1
     9     4     5    2
    10     4     6    1
    11     6     7    2
    12     6    51    1
    13     7     8    1
    14     7    52    1
    15     8     9    1
    16     8    16    1
    17     8    53    1
    18     9    10    1
    19     9    54    1
    20     9    55    1
    21    10    14    1
    22    10    11    1
    23    10    56    1
    24    11    12    1
    25    11    57    1
    26    11    58    1
    27    12    13    1
    28    12    59    1
    29    12    60    1
    30    13    14   am
    31    13    61    1
    32    14    15    2
    33    16    17   am
    34    16    62    1
    35    17    18    2
    36    17    19    1
    37    19    20    1
    38    19    25    1
    39    19    63    1
    40    20    21    1
    41    20    64    1
    42    20    65    1
    43    21    22    2
    44    21    66    1
    45    22    23    1
    46    22    24    1
    47    23    67    1
    48    23    68    1
    49    23    69    1
    50    24    70    1
    51    24    71    1
    52    24    72    1
    53    25    26    1
    54    25    73    1
    55    25    74    1
    56    26    27    2
    57    26    28    1
    58    28    29    1
    59    28    43    1
    60    28    75    1
    61    29    30   am
    62    29    76    1
    63    30    31    2
    64    30    32    1
    65    32    33    1
    66    32    35    1
    67    32    77    1
    68    33    34    1
    69    33    78    1
    70    33    79    1
    71    34    80    1
    72    35    36   am
    73    35    81    1
    74    36    37    2
    75    36    38    1
    76    38    39    1
    77    39    40    1
    78    39    41    1
    79    39    42    1
    80    40    82    1
    81    40    83    1
    82    40    84    1
    83    41    85    1
    84    41    86    1
    85    41    87    1
    86    42    88    1
    87    42    89    1
    88    42    90    1
    89    43    44    1
    90    43    45    1
    91    43    91    1
    92    44    92    1
    93    44    93    1
    94    44    94    1
    95    45    95    1
    96    45    96    1
    97    45    97    1
