
                    3D
 Schrodinger Suite 2019-4.
 97 97  0  0  1  0            999 V2000
  -22.7831   -1.4139  -21.6104 C   0  0  0  0  0  0
  -23.5301   -1.0019  -22.9057 C   0  0  0  0  0  0
  -23.2752   -1.9463  -23.8998 O   0  0  0  0  0  0
  -23.6449   -3.2078  -23.6862 C   0  0  0  0  0  0
  -24.6646   -3.5446  -23.0851 O   0  0  0  0  0  0
  -22.6387   -4.1424  -24.1783 C   0  0  0  0  0  0
  -21.5050   -3.7180  -24.7648 C   0  0  0  0  0  0
  -20.5495   -4.6388  -25.4604 C   0  0  2  0  0  0
  -19.0668   -4.3421  -25.1557 C   0  0  0  0  0  0
  -18.1235   -5.4376  -25.6898 C   0  0  2  0  0  0
  -18.2847   -6.8045  -25.0030 C   0  0  0  0  0  0
  -16.8765   -7.4013  -24.9503 C   0  0  0  0  0  0
  -16.0116   -6.2524  -25.0649 N   0  0  0  0  0  0
  -16.6454   -5.1598  -25.4757 C   0  0  0  0  0  0
  -16.1125   -4.0822  -25.7054 O   0  0  0  0  0  0
  -20.8309   -4.5307  -26.8855 N   0  0  0  0  0  0
  -21.9700   -4.9637  -27.4558 C   0  0  0  0  0  0
  -22.9887   -5.2735  -26.8353 O   0  0  0  0  0  0
  -21.9164   -5.2141  -28.9584 C   0  0  2  0  0  0
  -23.1740   -4.6440  -29.6546 C   0  0  0  0  0  0
  -23.2489   -3.1263  -29.5810 C   0  0  0  0  0  0
  -23.4922   -2.2744  -30.5949 C   0  0  0  0  0  0
  -23.8066   -2.6870  -32.0216 C   0  0  0  0  0  0
  -23.4600   -0.7772  -30.3844 C   0  0  0  0  0  0
  -21.8022   -6.7398  -29.1777 C   0  0  0  0  0  0
  -20.4247   -7.3454  -28.8252 C   0  0  0  0  0  0
  -19.8862   -7.0881  -27.7586 O   0  0  0  0  0  0
  -19.7562   -8.3102  -29.7988 C   0  0  2  0  0  0
  -19.4041   -7.6050  -31.0255 N   0  0  0  0  0  0
  -20.1926   -7.4370  -32.0897 C   0  0  0  0  0  0
  -21.3239   -7.9094  -32.1827 O   0  0  0  0  0  0
  -19.6251   -6.6283  -33.2392 C   0  0  2  0  0  0
  -20.6103   -5.4589  -33.4821 C   0  0  0  0  0  0
  -20.1972   -4.6411  -34.5539 O   0  0  0  0  0  0
  -19.6379   -7.5743  -34.3422 N   0  0  0  0  0  0
  -18.5855   -8.3789  -34.7316 C   0  0  0  0  0  0
  -17.4480   -8.3532  -34.2631 O   0  0  0  0  0  0
  -19.0137   -9.1434  -35.7647 O   0  0  0  0  0  0
  -18.1623   -9.9572  -36.5821 C   0  0  0  0  0  0
  -17.3919  -11.0102  -35.7578 C   0  0  0  0  0  0
  -17.2142   -9.0715  -37.4083 C   0  0  0  0  0  0
  -19.1240  -10.6942  -37.5299 C   0  0  0  0  0  0
  -20.4592   -9.6922  -29.9729 C   0  0  0  0  0  0
  -20.6945  -10.4373  -28.6459 C   0  0  0  0  0  0
  -19.6919  -10.6146  -30.9379 C   0  0  0  0  0  0
  -22.5664   -0.5849  -20.9439 H   0  0  0  0  0  0
  -23.3699   -2.1358  -21.0440 H   0  0  0  0  0  0
  -21.8271   -1.8845  -21.8354 H   0  0  0  0  0  0
  -23.2018   -0.0224  -23.2450 H   0  0  0  0  0  0
  -24.6102   -0.9706  -22.8255 H   0  0  0  0  0  0
  -22.8589   -5.1986  -24.1040 H   0  0  0  0  0  0
  -21.2548   -2.6766  -24.8320 H   0  0  0  0  0  0
  -20.7769   -5.6584  -25.1416 H   0  0  0  0  0  0
  -18.9237   -4.2331  -24.0790 H   0  0  0  0  0  0
  -18.7813   -3.3927  -25.6033 H   0  0  0  0  0  0
  -18.2375   -5.5345  -26.7676 H   0  0  0  0  0  0
  -18.9811   -7.4734  -25.5024 H   0  0  0  0  0  0
  -18.6589   -6.6719  -23.9889 H   0  0  0  0  0  0
  -16.6805   -8.0571  -25.7961 H   0  0  0  0  0  0
  -16.6953   -7.9582  -24.0319 H   0  0  0  0  0  0
  -15.0125   -6.3097  -24.9091 H   0  0  0  0  0  0
  -20.0553   -4.3023  -27.4895 H   0  0  0  0  0  0
  -21.0364   -4.7227  -29.3811 H   0  0  0  0  0  0
  -24.0844   -5.0543  -29.2158 H   0  0  0  0  0  0
  -23.1662   -4.9822  -30.6870 H   0  0  0  0  0  0
  -23.0732   -2.7057  -28.6006 H   0  0  0  0  0  0
  -24.7013   -2.1630  -32.3515 H   0  0  0  0  0  0
  -22.9867   -2.4094  -32.6841 H   0  0  0  0  0  0
  -24.0036   -3.7479  -32.1503 H   0  0  0  0  0  0
  -22.8102   -0.3077  -31.1222 H   0  0  0  0  0  0
  -24.4600   -0.3601  -30.4855 H   0  0  0  0  0  0
  -23.0705   -0.5228  -29.4003 H   0  0  0  0  0  0
  -22.0582   -6.9637  -30.2055 H   0  0  0  0  0  0
  -22.5591   -7.2555  -28.5892 H   0  0  0  0  0  0
  -18.7779   -8.5385  -29.3786 H   0  0  0  0  0  0
  -18.4712   -7.2182  -31.0744 H   0  0  0  0  0  0
  -18.6208   -6.2587  -33.0305 H   0  0  0  0  0  0
  -20.6654   -4.8234  -32.5968 H   0  0  0  0  0  0
  -21.6251   -5.8033  -33.6696 H   0  0  0  0  0  0
  -19.3399   -4.2945  -34.3556 H   0  0  0  0  0  0
  -20.4898   -7.6765  -34.8777 H   0  0  0  0  0  0
  -16.8090  -11.6642  -36.4085 H   0  0  0  0  0  0
  -16.6928  -10.5717  -35.0500 H   0  0  0  0  0  0
  -18.0732  -11.6377  -35.1836 H   0  0  0  0  0  0
  -16.6281   -9.6635  -38.1119 H   0  0  0  0  0  0
  -17.7561   -8.3202  -37.9755 H   0  0  0  0  0  0
  -16.5188   -8.5425  -36.7665 H   0  0  0  0  0  0
  -18.5850  -11.3021  -38.2578 H   0  0  0  0  0  0
  -19.7923  -11.3565  -36.9785 H   0  0  0  0  0  0
  -19.7527  -10.0006  -38.0855 H   0  0  0  0  0  0
  -21.4556   -9.5310  -30.3805 H   0  0  0  0  0  0
  -21.3275  -11.3108  -28.8065 H   0  0  0  0  0  0
  -19.7630  -10.8002  -28.2196 H   0  0  0  0  0  0
  -21.1859   -9.8217  -27.8961 H   0  0  0  0  0  0
  -20.1769  -11.5868  -31.0175 H   0  0  0  0  0  0
  -19.6361  -10.2059  -31.9455 H   0  0  0  0  0  0
  -18.6717  -10.7867  -30.5964 H   0  0  0  0  0  0
  1  2  1  0  0  0
  1 46  1  0  0  0
  1 47  1  0  0  0
  1 48  1  0  0  0
  2  3  1  0  0  0
  2 49  1  0  0  0
  2 50  1  0  0  0
  3  4  1  0  0  0
  4  5  2  0  0  0
  4  6  1  0  0  0
  6  7  2  0  0  0
  6 51  1  0  0  0
  7  8  1  0  0  0
  7 52  1  0  0  0
  8  9  1  0  0  0
  8 16  1  0  0  0
  8 53  1  0  0  0
  9 10  1  0  0  0
  9 54  1  0  0  0
  9 55  1  0  0  0
 10 14  1  0  0  0
 10 11  1  0  0  0
 10 56  1  0  0  0
 11 12  1  0  0  0
 11 57  1  0  0  0
 11 58  1  0  0  0
 12 13  1  0  0  0
 12 59  1  0  0  0
 12 60  1  0  0  0
 13 14  1  0  0  0
 13 61  1  0  0  0
 14 15  2  0  0  0
 16 17  1  0  0  0
 16 62  1  0  0  0
 17 18  2  0  0  0
 17 19  1  0  0  0
 19 20  1  0  0  0
 19 25  1  0  0  0
 19 63  1  0  0  0
 20 21  1  0  0  0
 20 64  1  0  0  0
 20 65  1  0  0  0
 21 22  2  0  0  0
 21 66  1  0  0  0
 22 23  1  0  0  0
 22 24  1  0  0  0
 23 67  1  0  0  0
 23 68  1  0  0  0
 23 69  1  0  0  0
 24 70  1  0  0  0
 24 71  1  0  0  0
 24 72  1  0  0  0
 25 26  1  0  0  0
 25 73  1  0  0  0
 25 74  1  0  0  0
 26 27  2  0  0  0
 26 28  1  0  0  0
 28 29  1  0  0  0
 28 43  1  0  0  0
 28 75  1  0  0  0
 29 30  1  0  0  0
 29 76  1  0  0  0
 30 31  2  0  0  0
 30 32  1  0  0  0
 32 33  1  0  0  0
 32 35  1  0  0  0
 32 77  1  0  0  0
 33 34  1  0  0  0
 33 78  1  0  0  0
 33 79  1  0  0  0
 34 80  1  0  0  0
 35 36  1  0  0  0
 35 81  1  0  0  0
 36 37  2  0  0  0
 36 38  1  0  0  0
 38 39  1  0  0  0
 39 40  1  0  0  0
 39 41  1  0  0  0
 39 42  1  0  0  0
 40 82  1  0  0  0
 40 83  1  0  0  0
 40 84  1  0  0  0
 41 85  1  0  0  0
 41 86  1  0  0  0
 41 87  1  0  0  0
 42 88  1  0  0  0
 42 89  1  0  0  0
 42 90  1  0  0  0
 43 44  1  0  0  0
 43 45  1  0  0  0
 43 91  1  0  0  0
 44 92  1  0  0  0
 44 93  1  0  0  0
 44 94  1  0  0  0
 45 95  1  0  0  0
 45 96  1  0  0  0
 45 97  1  0  0  0
M  END
$$$$
