
                    3D
 Schrodinger Suite 2019-4.
 61 66  0  0  1  0            999 V2000
  -28.5669   -4.9970  -26.9175 C   0  0  0  0  0  0
  -27.3520   -5.1734  -27.6336 O   0  0  0  0  0  0
  -26.7674   -6.4261  -27.6792 C   0  0  0  0  0  0
  -27.2123   -7.5211  -26.9217 C   0  0  0  0  0  0
  -26.5955   -8.7658  -27.0390 C   0  0  0  0  0  0
  -25.5213   -8.9552  -27.9164 C   0  0  0  0  0  0
  -24.9170  -10.2949  -28.1419 C   0  0  0  0  0  0
  -25.0383  -11.3739  -27.3401 C   0  0  0  0  0  0
  -24.4481  -12.6635  -27.6704 C   0  0  0  0  0  0
  -24.5597  -13.6389  -26.9324 O   0  0  0  0  0  0
  -23.7015  -12.6766  -28.9742 C   0  0  0  0  0  0
  -23.0264  -13.8009  -29.4870 C   0  0  0  0  0  0
  -22.9916  -15.0029  -28.8346 O   0  0  0  0  0  0
  -22.3484  -13.7253  -30.7045 C   0  0  0  0  0  0
  -22.3303  -12.5404  -31.4296 C   0  0  0  0  0  0
  -21.6623  -12.4588  -32.6168 O   0  0  0  0  0  0
  -22.9932  -11.4268  -30.9459 C   0  0  0  0  0  0
  -23.6668  -11.4996  -29.7354 C   0  0  0  0  0  0
  -24.2850  -10.3370  -29.3420 O   0  0  0  0  0  0
  -25.0492   -7.8424  -28.6274 C   0  0  0  0  0  0
  -25.6687   -6.5940  -28.5356 C   0  0  0  0  0  0
  -25.1227   -5.4562  -29.3280 C   0  0  0  0  0  0
  -25.3368   -5.3216  -30.6980 C   0  0  0  0  0  0
  -26.1170   -6.1996  -31.3662 O   0  0  0  0  0  0
  -24.7770   -4.2822  -31.4253 C   0  0  0  0  0  0
  -24.0011   -3.3313  -30.7854 C   0  0  0  0  0  0
  -23.4615   -2.3330  -31.5496 O   0  0  0  0  0  0
  -23.8030   -3.4059  -29.3989 C   0  0  0  0  0  0
  -23.0335   -2.3879  -28.6475 C   0  0  0  0  0  0
  -22.5170   -1.4438  -29.2368 O   0  0  0  0  0  0
  -23.0102   -2.5970  -27.1996 C   0  0  0  0  0  0
  -23.6289   -3.6487  -26.6156 C   0  0  0  0  0  0
  -23.7170   -3.9791  -25.1613 C   0  0  0  0  0  0
  -24.6515   -4.9308  -24.7098 C   0  0  0  0  0  0
  -24.7868   -5.2278  -23.3576 C   0  0  0  0  0  0
  -23.9864   -4.5738  -22.4308 C   0  0  0  0  0  0
  -24.1170   -4.8494  -21.0980 O   0  0  0  0  0  0
  -23.0597   -3.6250  -22.8510 C   0  0  0  0  0  0
  -22.9170   -3.3371  -24.2089 C   0  0  0  0  0  0
  -24.2341   -4.6152  -27.3368 O   0  0  0  0  0  0
  -24.3735   -4.4713  -28.6963 C   0  0  0  0  0  0
  -28.9170   -3.9827  -27.0980 H   0  0  0  0  0  0
  -29.3477   -5.6785  -27.2591 H   0  0  0  0  0  0
  -28.4231   -5.1159  -25.8424 H   0  0  0  0  0  0
  -28.0475   -7.4288  -26.2446 H   0  0  0  0  0  0
  -26.9912   -9.5909  -26.4661 H   0  0  0  0  0  0
  -25.5709  -11.2925  -26.4075 H   0  0  0  0  0  0
  -22.4877  -15.6592  -29.3181 H   0  0  0  0  0  0
  -21.8266  -14.5851  -31.0977 H   0  0  0  0  0  0
  -21.7170  -11.5743  -32.9900 H   0  0  0  0  0  0
  -22.9916  -10.5026  -31.4979 H   0  0  0  0  0  0
  -24.2064   -7.9486  -29.2956 H   0  0  0  0  0  0
  -26.3020   -5.8906  -32.2552 H   0  0  0  0  0  0
  -24.9452   -4.1970  -32.4892 H   0  0  0  0  0  0
  -22.9610   -1.7309  -30.9835 H   0  0  0  0  0  0
  -22.5170   -1.8516  -26.5984 H   0  0  0  0  0  0
  -25.3033   -5.4398  -25.4050 H   0  0  0  0  0  0
  -25.5159   -5.9582  -23.0382 H   0  0  0  0  0  0
  -24.9582   -5.2598  -20.8580 H   0  0  0  0  0  0
  -22.4637   -3.1011  -22.1185 H   0  0  0  0  0  0
  -22.1938   -2.5970  -24.5121 H   0  0  0  0  0  0
  1  2  1  0  0  0
  1 42  1  0  0  0
  1 43  1  0  0  0
  1 44  1  0  0  0
  2  3  1  0  0  0
  3 21  1  0  0  0
  3  4  2  0  0  0
  4  5  1  0  0  0
  4 45  1  0  0  0
  5  6  2  0  0  0
  5 46  1  0  0  0
  6  7  1  0  0  0
  6 20  1  0  0  0
  7 19  1  0  0  0
  7  8  2  0  0  0
  8  9  1  0  0  0
  8 47  1  0  0  0
  9 10  2  0  0  0
  9 11  1  0  0  0
 11 18  2  0  0  0
 11 12  1  0  0  0
 12 13  1  0  0  0
 12 14  2  0  0  0
 13 48  1  0  0  0
 14 15  1  0  0  0
 14 49  1  0  0  0
 15 16  1  0  0  0
 15 17  2  0  0  0
 16 50  1  0  0  0
 17 18  1  0  0  0
 17 51  1  0  0  0
 18 19  1  0  0  0
 20 21  2  0  0  0
 20 52  1  0  0  0
 21 22  1  0  0  0
 22 41  1  0  0  0
 22 23  2  0  0  0
 23 24  1  0  0  0
 23 25  1  0  0  0
 24 53  1  0  0  0
 25 26  2  0  0  0
 25 54  1  0  0  0
 26 27  1  0  0  0
 26 28  1  0  0  0
 27 55  1  0  0  0
 28 41  2  0  0  0
 28 29  1  0  0  0
 29 30  2  0  0  0
 29 31  1  0  0  0
 31 32  2  0  0  0
 31 56  1  0  0  0
 32 33  1  0  0  0
 32 40  1  0  0  0
 33 39  1  0  0  0
 33 34  2  0  0  0
 34 35  1  0  0  0
 34 57  1  0  0  0
 35 36  2  0  0  0
 35 58  1  0  0  0
 36 37  1  0  0  0
 36 38  1  0  0  0
 37 59  1  0  0  0
 38 39  2  0  0  0
 38 60  1  0  0  0
 39 61  1  0  0  0
 40 41  1  0  0  0
M  END
$$$$
