@<TRIPOS>MOLECULE
*****
 61 66 0 0 0
SMALL
GASTEIGER
****
Schrodinger Suite 2019-4.
@<TRIPOS>ATOM
      1 C         -28.5669   -4.9970  -26.9175 C.3     1  UNL1        0.0788
      2 O         -27.3520   -5.1734  -27.6336 O.3     1  UNL1       -0.4945
      3 C         -26.7674   -6.4261  -27.6792 C.ar    1  UNL1        0.1280
      4 C         -27.2123   -7.5211  -26.9217 C.ar    1  UNL1       -0.0187
      5 C         -26.5955   -8.7658  -27.0390 C.ar    1  UNL1       -0.0476
      6 C         -25.5213   -8.9552  -27.9164 C.ar    1  UNL1        0.0182
      7 C         -24.9170  -10.2949  -28.1419 C.ar    1  UNL1        0.1392
      8 C         -25.0383  -11.3739  -27.3401 C.ar    1  UNL1        0.0288
      9 C         -24.4481  -12.6635  -27.6704 C.ar    1  UNL1        0.1966
     10 O         -24.5597  -13.6389  -26.9324 O.2     1  UNL1       -0.2869
     11 C         -23.7015  -12.6766  -28.9742 C.ar    1  UNL1        0.1055
     12 C         -23.0264  -13.8009  -29.4870 C.ar    1  UNL1        0.1347
     13 O         -22.9916  -15.0029  -28.8346 O.3     1  UNL1       -0.5058
     14 C         -22.3484  -13.7253  -30.7045 C.ar    1  UNL1        0.0223
     15 C         -22.3303  -12.5404  -31.4296 C.ar    1  UNL1        0.1239
     16 O         -21.6623  -12.4588  -32.6168 O.3     1  UNL1       -0.5065
     17 C         -22.9932  -11.4268  -30.9459 C.ar    1  UNL1        0.0231
     18 C         -23.6668  -11.4996  -29.7354 C.ar    1  UNL1        0.1462
     19 O         -24.2850  -10.3370  -29.3420 O.2     1  UNL1       -0.4544
     20 C         -25.0492   -7.8424  -28.6274 C.ar    1  UNL1       -0.0396
     21 C         -25.6687   -6.5940  -28.5356 C.ar    1  UNL1        0.0315
     22 C         -25.1227   -5.4562  -29.3280 C.ar    1  UNL1        0.0702
     23 C         -25.3368   -5.3216  -30.6980 C.ar    1  UNL1        0.1317
     24 O         -26.1170   -6.1996  -31.3662 O.3     1  UNL1       -0.5059
     25 C         -24.7770   -4.2822  -31.4253 C.ar    1  UNL1        0.0229
     26 C         -24.0011   -3.3313  -30.7854 C.ar    1  UNL1        0.1347
     27 O         -23.4615   -2.3330  -31.5496 O.3     1  UNL1       -0.5058
     28 C         -23.8030   -3.4059  -29.3989 C.ar    1  UNL1        0.1061
     29 C         -23.0335   -2.3879  -28.6475 C.ar    1  UNL1        0.1966
     30 O         -22.5170   -1.4438  -29.2368 O.2     1  UNL1       -0.2869
     31 C         -23.0102   -2.5970  -27.1996 C.ar    1  UNL1        0.0288
     32 C         -23.6289   -3.6487  -26.6156 C.ar    1  UNL1        0.1393
     33 C         -23.7170   -3.9791  -25.1613 C.ar    1  UNL1        0.0176
     34 C         -24.6515   -4.9308  -24.7098 C.ar    1  UNL1       -0.0476
     35 C         -24.7868   -5.2278  -23.3576 C.ar    1  UNL1       -0.0195
     36 C         -23.9864   -4.5738  -22.4308 C.ar    1  UNL1        0.1169
     37 O         -24.1170   -4.8494  -21.0980 O.3     1  UNL1       -0.5068
     38 C         -23.0597   -3.6250  -22.8510 C.ar    1  UNL1       -0.0195
     39 C         -22.9170   -3.3371  -24.2089 C.ar    1  UNL1       -0.0476
     40 O         -24.2341   -4.6152  -27.3368 O.2     1  UNL1       -0.4537
     41 C         -24.3735   -4.4713  -28.6963 C.ar    1  UNL1        0.1541
     42 H         -28.9170   -3.9827  -27.0980 H       1  UNL1        0.0660
     43 H         -29.3477   -5.6785  -27.2591 H       1  UNL1        0.0660
     44 H         -28.4231   -5.1159  -25.8424 H       1  UNL1        0.0660
     45 H         -28.0475   -7.4288  -26.2446 H       1  UNL1        0.0654
     46 H         -26.9912   -9.5909  -26.4661 H       1  UNL1        0.0626
     47 H         -25.5709  -11.2925  -26.4075 H       1  UNL1        0.0693
     48 H         -22.4877  -15.6592  -29.3181 H       1  UNL1        0.2922
     49 H         -21.8266  -14.5851  -31.0977 H       1  UNL1        0.0691
     50 H         -21.7170  -11.5743  -32.9900 H       1  UNL1        0.2921
     51 H         -22.9916  -10.5026  -31.4979 H       1  UNL1        0.0691
     52 H         -24.2064   -7.9486  -29.2956 H       1  UNL1        0.0632
     53 H         -26.3020   -5.8906  -32.2552 H       1  UNL1        0.2922
     54 H         -24.9452   -4.1970  -32.4892 H       1  UNL1        0.0691
     55 H         -22.9610   -1.7309  -30.9835 H       1  UNL1        0.2922
     56 H         -22.5170   -1.8516  -26.5984 H       1  UNL1        0.0693
     57 H         -25.3033   -5.4398  -25.4050 H       1  UNL1        0.0626
     58 H         -25.5159   -5.9582  -23.0382 H       1  UNL1        0.0654
     59 H         -24.9582   -5.2598  -20.8580 H       1  UNL1        0.2921
     60 H         -22.4637   -3.1011  -22.1185 H       1  UNL1        0.0654
     61 H         -22.1938   -2.5970  -24.5121 H       1  UNL1        0.0626
@<TRIPOS>BOND
     1     1     2    1
     2     1    42    1
     3     1    43    1
     4     1    44    1
     5     2     3    1
     6     3    21   ar
     7     3     4   ar
     8     4     5   ar
     9     4    45    1
    10     5     6   ar
    11     5    46    1
    12     6     7    1
    13     6    20   ar
    14     7    19   ar
    15     7     8   ar
    16     8     9   ar
    17     8    47    1
    18     9    10    2
    19     9    11   ar
    20    11    18   ar
    21    11    12   ar
    22    12    13    1
    23    12    14   ar
    24    13    48    1
    25    14    15   ar
    26    14    49    1
    27    15    16    1
    28    15    17   ar
    29    16    50    1
    30    17    18   ar
    31    17    51    1
    32    18    19   ar
    33    20    21   ar
    34    20    52    1
    35    21    22    1
    36    22    41   ar
    37    22    23   ar
    38    23    24    1
    39    23    25   ar
    40    24    53    1
    41    25    26   ar
    42    25    54    1
    43    26    27    1
    44    26    28   ar
    45    27    55    1
    46    28    41   ar
    47    28    29   ar
    48    29    30    2
    49    29    31   ar
    50    31    32   ar
    51    31    56    1
    52    32    33    1
    53    32    40   ar
    54    33    39   ar
    55    33    34   ar
    56    34    35   ar
    57    34    57    1
    58    35    36   ar
    59    35    58    1
    60    36    37    1
    61    36    38   ar
    62    37    59    1
    63    38    39   ar
    64    38    60    1
    65    39    61    1
    66    40    41   ar
