@<TRIPOS>MOLECULE
/home/lixiaoshuang.lxs/med/data/m_pro/PDB_BA/3atw/3atw_ligand.pdb
 38 39 0 0 0
SMALL
GASTEIGER

@<TRIPOS>ATOM
      1  C          1.3530   11.1600  -17.3980 C.2     1  ACE1        0.2423
      2  O          0.3890   10.6860  -16.7880 O.2     1  ACE1       -0.2733
      3  CH3        1.2430   11.4550  -18.8950 C.3     1  ACE1        0.0964
      4  N          2.5500   11.4260  -16.8530 N.am    2  THR2       -0.1951
      5  CA         2.8270   11.2310  -15.4130 C.3     2  THR2        0.2028
      6  C          2.3830   12.5170  -14.7190 C.2     2  THR2        0.2642
      7  O          2.8630   13.6030  -15.0400 O.2     2  THR2       -0.2714
      8  CB         4.2980   10.9480  -15.1460 C.3     2  THR2        0.1808
      9  OG1        4.6590    9.7580  -15.8340 O.3     2  THR2       -0.2208
     10  CG2        4.5910   10.8060  -13.6500 C.3     2  THR2        0.0379
     11  N          1.4330   12.3540  -13.8100 N.am    3  VAL3       -0.1963
     12  CA         0.8610   13.4810  -13.0770 C.3     3  VAL3        0.1727
     13  C          1.2580   13.3890  -11.5960 C.2     3  VAL3        0.2616
     14  O          1.0530   12.3550  -10.9530 O.2     3  VAL3       -0.2715
     15  CB        -0.6850   13.4840  -13.2370 C.3     3  VAL3        0.0290
     16  CG1       -1.3000   14.7570  -12.6490 C.3     3  VAL3        0.0023
     17  CG2       -1.1310   13.3280  -14.7010 C.3     3  VAL3        0.0023
     18  N          1.8070   14.5110  -11.1140 N.am    4  ALC4       -0.1963
     19  CA         2.2280   14.6740   -9.7220 C.3     4  ALC4        0.1728
     20  C          0.9520   15.0170   -8.9890 C.2     4  ALC4        0.2616
     21  O          0.1940   15.8720   -9.4530 O.2     4  ALC4       -0.2715
     22  CB         3.2310   15.8360   -9.5350 C.3     4  ALC4        0.0311
     23  CG         4.5880   15.6290  -10.2380 C.3     4  ALC4        0.0022
     24  CD2        5.5550   16.7300   -9.7520 C.3     4  ALC4        0.0001
     25  CE2        6.9970   16.5970  -10.2990 C.3     4  ALC4        0.0000
     26  CZ         7.5580   15.1740  -10.1630 C.3     4  ALC4        0.0000
     27  CE1        6.5690   14.0670  -10.6210 C.3     4  ALC4        0.0000
     28  CD1        5.1840   14.2260   -9.9680 C.3     4  ALC4        0.0001
     29  N          0.7050   14.3290   -7.8840 N.am    5  HSV5       -0.1973
     30  CA        -0.5370   14.6110   -7.1330 C.3     5  HSV5        0.1656
     31  CB        -1.1760   13.2910   -6.6470 C.3     5  HSV5        0.0771
     32  CG        -2.0440   12.6880   -7.7480 C.ar    5  HSV5        0.0820
     33  ND1       -2.4800   11.4310   -7.8000 N.ar    5  HSV5       -0.2267
     34  CD2       -2.5180   13.3210   -8.8180 C.ar    5  HSV5        0.1154
     35  CE1       -3.2140   11.2910   -8.9040 C.ar    5  HSV5        0.1986
     36  NE2       -3.2380   12.4640   -9.5380 N.ar    5  HSV5       -0.2212
     37  C         -0.2040   15.6050   -5.9990 C.2     5  HSV5        0.2291
     38  O         -0.9250   15.7820   -5.0190 O.2     5  HSV5       -0.2864
@<TRIPOS>BOND
     1     3     1    1
     2     1     4   am
     3     1     2    2
     4     4     5    1
     5     9     8    1
     6     5     8    1
     7     5     6    1
     8     8    10    1
     9     7     6    2
    10     6    11   am
    11    17    15    1
    12    11    12    1
    13    15    12    1
    14    15    16    1
    15    12    13    1
    16    13    18   am
    17    13    14    2
    18    18    19    1
    19    27    26    1
    20    27    28    1
    21    25    26    1
    22    25    24    1
    23    23    28    1
    24    23    24    1
    25    23    22    1
    26    19    22    1
    27    19    20    1
    28    36    35   ar
    29    36    34   ar
    30    21    20    2
    31    20    29   am
    32    35    33   ar
    33    34    32   ar
    34    29    30    1
    35    33    32   ar
    36    32    31    1
    37    30    31    1
    38    30    37    1
    39    37    38    2
