@<TRIPOS>MOLECULE
/home/lixiaoshuang.lxs/med/data/m_pro/PDB_BA/3d62/3d62_ligand.pdb
 15 15 0 0 0
SMALL
GASTEIGER

@<TRIPOS>ATOM
      1  O15       63.1580   41.9080   42.4120 O.2   350  959350     -0.2942
      2  C13       64.2710   41.4650   42.3670 C.2   350  959350      0.1730
      3  C16       64.3870   40.0400   41.7410 C.3   350  959350      0.0742
      4  C12       65.4370   42.1920   42.9420 C.3   350  959350      0.1826
      5  N10       66.4040   42.3210   41.6980 N.am  350  959350     -0.1607
      6  C9        66.0210   42.7590   40.4410 C.2   350  959350      0.4219
      7  O11       64.8420   43.1540   40.1450 O.2   350  959350     -0.2245
      8  O8        67.0640   42.7750   39.3730 O.3   350  959350     -0.4285
      9  C7        68.2960   43.5270   39.7830 C.3   350  959350      0.2368
     10  C5        69.4740   42.9510   39.0340 C.ar  350  959350      0.0213
     11  C6        69.9220   43.5670   37.8660 C.ar  350  959350     -0.0007
     12  C1        71.0110   43.0320   37.1780 C.ar  350  959350     -0.0002
     13  C2        71.6440   41.8860   37.6600 C.ar  350  959350     -0.0000
     14  C3        71.1950   41.2650   38.8230 C.ar  350  959350     -0.0002
     15  C4        70.1070   41.8000   39.5120 C.ar  350  959350     -0.0007
@<TRIPOS>BOND
     1    12    13   ar
     2    12    11   ar
     3    13    14   ar
     4    11    10   ar
     5    14    15   ar
     6    10    15   ar
     7    10     9    1
     8     8     9    1
     9     8     6    1
    10     7     6    2
    11     6     5   am
    12     5     4    1
    13     3     2    1
    14     2     1    2
    15     2     4    1
