@<TRIPOS>MOLECULE
*****
 97 98 0 0 0
SMALL
GASTEIGER
****
Schrodinger Suite 2019-4.
@<TRIPOS>ATOM
      1 C         -25.3238   -4.4313  -21.3011 C.3     1  UNL1       -0.0306
      2 C         -24.5468   -3.1330  -21.4982 C.3     1  UNL1        0.0900
      3 O         -23.5182   -3.3386  -22.4487 O.3     1  UNL1       -0.4618
      4 C         -23.4877   -2.5906  -23.5599 C.2     1  UNL1        0.3317
      5 O         -24.1796   -1.5957  -23.7501 O.2     1  UNL1       -0.2456
      6 C         -22.5316   -3.0584  -24.5590 C.2     1  UNL1        0.0203
      7 C         -21.4919   -3.8658  -24.2909 C.2     1  UNL1       -0.0572
      8 C         -20.5420   -4.4281  -25.3321 C.3     1  UNL1        0.0427
      9 C         -19.0477   -4.2573  -25.0251 C.3     1  UNL1       -0.0197
     10 C         -18.2292   -5.3043  -25.8128 C.3     1  UNL1        0.0389
     11 C         -18.5012   -6.7562  -25.3778 C.3     1  UNL1       -0.0262
     12 C         -17.1386   -7.4478  -25.3220 C.3     1  UNL1        0.0123
     13 N         -16.1866   -6.3626  -25.3312 N.am    1  UNL1       -0.3151
     14 C         -16.7288   -5.1856  -25.6244 C.2     1  UNL1        0.2162
     15 O         -16.1064   -4.1423  -25.7770 O.2     1  UNL1       -0.2755
     16 N         -20.8188   -3.9761  -26.6919 N.am    1  UNL1       -0.3075
     17 C         -21.6309   -4.6335  -27.5236 C.2     1  UNL1        0.2338
     18 O         -22.3283   -5.5894  -27.1745 O.2     1  UNL1       -0.2738
     19 C         -21.6389   -4.1728  -28.9796 C.3     1  UNL1        0.0994
     20 C         -23.0118   -3.5511  -29.2300 C.3     1  UNL1       -0.0257
     21 C         -23.2873   -3.1555  -30.6800 C.3     1  UNL1       -0.0486
     22 C         -24.5483   -2.2877  -30.8098 C.3     1  UNL1       -0.0467
     23 C         -25.6894   -2.7523  -29.9134 C.3     1  UNL1       -0.0627
     24 C         -25.0277   -2.3050  -32.2480 C.3     1  UNL1       -0.0627
     25 N         -21.4424   -5.3602  -29.8019 N.am    1  UNL1       -0.3025
     26 C         -20.2576   -5.9811  -29.9123 C.2     1  UNL1        0.2342
     27 O         -19.2053   -5.5137  -29.4728 O.2     1  UNL1       -0.2738
     28 C         -20.2612   -7.3443  -30.5991 C.3     1  UNL1        0.1017
     29 N         -19.3975   -7.1994  -31.7429 N.am    1  UNL1       -0.3022
     30 C         -19.7519   -7.4991  -32.9869 C.2     1  UNL1        0.2342
     31 O         -20.8065   -8.0650  -33.2828 O.2     1  UNL1       -0.2738
     32 C         -18.7741   -7.0101  -34.0437 C.3     1  UNL1        0.1021
     33 N         -18.8444   -7.9510  -35.1465 N.am    1  UNL1       -0.2973
     34 C         -18.1887   -9.1046  -35.3004 C.2     1  UNL1        0.2800
     35 O         -17.2421   -9.4644  -34.6053 O.2     1  UNL1       -0.2668
     36 C         -18.6826   -9.8846  -36.4454 C.ar    1  UNL1        0.1890
     37 C         -18.0343  -10.4404  -37.5143 C.ar    1  UNL1       -0.0113
     38 C         -19.0400  -11.0008  -38.3499 C.ar    1  UNL1       -0.0231
     39 C         -20.2269  -10.7794  -37.7149 C.ar    1  UNL1        0.0928
     40 O         -20.0237  -10.1085  -36.5502 O.2     1  UNL1       -0.4583
     41 C         -19.2740   -5.6132  -34.5097 C.3     1  UNL1       -0.0197
     42 C         -18.4311   -5.1131  -35.6718 C.3     1  UNL1       -0.0605
     43 C         -19.2974   -4.5386  -33.4087 C.3     1  UNL1       -0.0605
     44 C         -19.7601   -8.5134  -29.7229 C.3     1  UNL1       -0.0197
     45 C         -19.6073   -9.8262  -30.5178 C.3     1  UNL1       -0.0605
     46 C         -20.6981   -8.7366  -28.5335 C.3     1  UNL1       -0.0605
     47 H         -26.1132   -4.3171  -20.5590 H       1  UNL1        0.0262
     48 H         -25.7888   -4.7424  -22.2372 H       1  UNL1        0.0262
     49 H         -24.6630   -5.2335  -20.9700 H       1  UNL1        0.0262
     50 H         -24.0709   -2.8113  -20.5764 H       1  UNL1        0.0695
     51 H         -25.2578   -2.3583  -21.7848 H       1  UNL1        0.0695
     52 H         -22.7063   -2.7141  -25.5655 H       1  UNL1        0.0686
     53 H         -21.3045   -4.1909  -23.2775 H       1  UNL1        0.0593
     54 H         -20.7557   -5.4962  -25.2685 H       1  UNL1        0.0543
     55 H         -18.8727   -4.3861  -23.9561 H       1  UNL1        0.0293
     56 H         -18.7203   -3.2467  -25.2699 H       1  UNL1        0.0293
     57 H         -18.4077   -5.2017  -26.8833 H       1  UNL1        0.0395
     58 H         -19.1817   -7.2677  -26.0583 H       1  UNL1        0.0288
     59 H         -18.9533   -6.7792  -24.3859 H       1  UNL1        0.0288
     60 H         -16.9659   -8.0632  -26.2034 H       1  UNL1        0.0462
     61 H         -17.0250   -8.0685  -24.4331 H       1  UNL1        0.0462
     62 H         -15.1892   -6.5148  -25.2265 H       1  UNL1        0.1487
     63 H         -20.2984   -3.1840  -27.0434 H       1  UNL1        0.1493
     64 H         -20.8560   -3.4428  -29.1752 H       1  UNL1        0.0594
     65 H         -23.1052   -2.6618  -28.6023 H       1  UNL1        0.0288
     66 H         -23.7893   -4.2424  -28.9012 H       1  UNL1        0.0288
     67 H         -23.3964   -4.0641  -31.2741 H       1  UNL1        0.0268
     68 H         -22.4323   -2.6169  -31.0916 H       1  UNL1        0.0268
     69 H         -24.2953   -1.2617  -30.5369 H       1  UNL1        0.0295
     70 H         -26.5938   -2.2066  -30.1533 H       1  UNL1        0.0232
     71 H         -25.8611   -3.8117  -30.0713 H       1  UNL1        0.0232
     72 H         -25.4888   -2.6055  -28.8556 H       1  UNL1        0.0232
     73 H         -25.8224   -1.5755  -32.4066 H       1  UNL1        0.0232
     74 H         -24.1850   -2.0804  -32.8952 H       1  UNL1        0.0232
     75 H         -25.4071   -3.2868  -32.5339 H       1  UNL1        0.0232
     76 H         -22.2646   -5.7902  -30.1995 H       1  UNL1        0.1495
     77 H         -21.2847   -7.5648  -30.9110 H       1  UNL1        0.0597
     78 H         -18.5132   -6.7316  -31.5933 H       1  UNL1        0.1495
     79 H         -17.7565   -6.9556  -33.6525 H       1  UNL1        0.0597
     80 H         -19.6262   -7.8008  -35.7753 H       1  UNL1        0.1499
     81 H         -16.9694  -10.4172  -37.6917 H       1  UNL1        0.0657
     82 H         -18.9114  -11.5087  -39.2945 H       1  UNL1        0.0649
     83 H         -21.2553  -11.0173  -37.9437 H       1  UNL1        0.1029
     84 H         -20.3006   -5.6877  -34.8676 H       1  UNL1        0.0318
     85 H         -18.6343   -4.0637  -35.8678 H       1  UNL1        0.0233
     86 H         -17.3722   -5.2167  -35.4517 H       1  UNL1        0.0233
     87 H         -18.6460   -5.6847  -36.5726 H       1  UNL1        0.0233
     88 H         -19.6156   -3.5796  -33.8146 H       1  UNL1        0.0233
     89 H         -20.0023   -4.7630  -32.6098 H       1  UNL1        0.0233
     90 H         -18.3070   -4.4172  -32.9729 H       1  UNL1        0.0233
     91 H         -18.7770   -8.2552  -29.3270 H       1  UNL1        0.0318
     92 H         -19.3581  -10.6604  -29.8629 H       1  UNL1        0.0233
     93 H         -20.5325  -10.0827  -31.0350 H       1  UNL1        0.0233
     94 H         -18.8125   -9.7612  -31.2612 H       1  UNL1        0.0233
     95 H         -20.4039   -9.6047  -27.9441 H       1  UNL1        0.0233
     96 H         -20.7028   -7.8769  -27.8633 H       1  UNL1        0.0233
     97 H         -21.7189   -8.9040  -28.8782 H       1  UNL1        0.0233
@<TRIPOS>BOND
     1     1     2    1
     2     1    47    1
     3     1    48    1
     4     1    49    1
     5     2     3    1
     6     2    50    1
     7     2    51    1
     8     3     4    1
     9     4     5    2
    10     4     6    1
    11     6     7    2
    12     6    52    1
    13     7     8    1
    14     7    53    1
    15     8     9    1
    16     8    16    1
    17     8    54    1
    18     9    10    1
    19     9    55    1
    20     9    56    1
    21    10    14    1
    22    10    11    1
    23    10    57    1
    24    11    12    1
    25    11    58    1
    26    11    59    1
    27    12    13    1
    28    12    60    1
    29    12    61    1
    30    13    14   am
    31    13    62    1
    32    14    15    2
    33    16    17   am
    34    16    63    1
    35    17    18    2
    36    17    19    1
    37    19    20    1
    38    19    25    1
    39    19    64    1
    40    20    21    1
    41    20    65    1
    42    20    66    1
    43    21    22    1
    44    21    67    1
    45    21    68    1
    46    22    23    1
    47    22    24    1
    48    22    69    1
    49    23    70    1
    50    23    71    1
    51    23    72    1
    52    24    73    1
    53    24    74    1
    54    24    75    1
    55    25    26   am
    56    25    76    1
    57    26    27    2
    58    26    28    1
    59    28    29    1
    60    28    44    1
    61    28    77    1
    62    29    30   am
    63    29    78    1
    64    30    31    2
    65    30    32    1
    66    32    33    1
    67    32    41    1
    68    32    79    1
    69    33    34   am
    70    33    80    1
    71    34    35    2
    72    34    36    1
    73    36    40   ar
    74    36    37   ar
    75    37    38   ar
    76    37    81    1
    77    38    39   ar
    78    38    82    1
    79    39    40   ar
    80    39    83    1
    81    41    42    1
    82    41    43    1
    83    41    84    1
    84    42    85    1
    85    42    86    1
    86    42    87    1
    87    43    88    1
    88    43    89    1
    89    43    90    1
    90    44    45    1
    91    44    46    1
    92    44    91    1
    93    45    92    1
    94    45    93    1
    95    45    94    1
    96    46    95    1
    97    46    96    1
    98    46    97    1
