@<TRIPOS>MOLECULE
*****
 81 82 0 0 0
SMALL
GASTEIGER
****
Schrodinger Suite 2019-4.
@<TRIPOS>ATOM
      1 C         -13.9569   -3.3235  -27.4286 C.3     0  UNK0        0.0122
      2 C         -14.1688   -4.3705  -26.3461 C.2     0  UNK0        0.2106
      3 O         -13.2761   -5.1689  -26.0629 O.2     0  UNK0       -0.2761
      4 N         -15.3936   -4.4253  -25.8228 N.am    1  SER1       -0.3023
      5 CA        -15.9161   -5.6163  -25.1717 C.3     1  SER1        0.1225
      6 CB        -16.6538   -5.2279  -23.8827 C.3     1  SER1        0.0711
      7 OG        -17.7550   -4.3702  -24.1156 O.3     1  SER1       -0.3927
      8 C         -16.8661   -6.3107  -26.1473 C.2     1  SER1        0.2362
      9 O         -17.6956   -5.6372  -26.7634 O.2     1  SER1       -0.2737
     10 N         -16.7570   -7.6436  -26.2278 N.am    2  ALA2       -0.3027
     11 CA        -17.7276   -8.5263  -26.8595 C.3     2  ALA2        0.0966
     12 CB        -17.1248   -9.9368  -26.9734 C.3     2  ALA2       -0.0381
     13 C         -19.0198   -8.4931  -26.0332 C.2     2  ALA2        0.2337
     14 O         -19.1593   -9.2692  -25.0885 O.2     2  ALA2       -0.2738
     15 N         -19.8759   -7.5174  -26.3705 N.am    3  VAL3       -0.3022
     16 CA        -21.0589   -7.1191  -25.6238 C.3     3  VAL3        0.1017
     17 C         -22.1921   -6.7714  -26.5953 C.2     3  VAL3        0.2342
     18 O         -21.9634   -6.5315  -27.7808 O.2     3  VAL3       -0.2738
     19 N         -23.4020   -6.7807  -26.0321 N.am    4  PHE4       -0.3022
     20 CA        -24.6578   -6.2737  -26.5709 C.3     4  PHE4        0.1034
     21 CB        -25.6647   -6.4868  -25.4093 C.3     4  PHE4       -0.0007
     22 CG        -27.1594   -6.4704  -25.6770 C.ar    4  PHE4       -0.0451
     23 CD2       -27.7679   -5.5448  -26.5540 C.ar    4  PHE4       -0.0585
     24 CE2       -29.1521   -5.4716  -26.6280 C.ar    4  PHE4       -0.0615
     25 CZ        -29.9433   -6.2830  -25.8271 C.ar    4  PHE4       -0.0617
     26 CE1       -29.3647   -7.1835  -24.9464 C.ar    4  PHE4       -0.0615
     27 CD1       -27.9856   -7.2723  -24.8560 C.ar    4  PHE4       -0.0585
     28 C         -24.4484   -4.7872  -26.9363 C.2     4  PHE4        0.2342
     29 O         -24.3573   -3.9662  -26.0260 O.2     4  PHE4       -0.2738
     30 N         -24.3015   -4.4862  -28.2410 N.am    5  HIS5       -0.3040
     31 CA        -24.0416   -3.1383  -28.7745 C.3     5  HIS5        0.0839
     32 C         -25.1569   -2.8632  -29.7630 C.2     5  HIS5        0.1408
     33 O         -25.1037   -1.9671  -30.6057 O.2     5  HIS5       -0.2991
     34 CB        -22.6151   -3.0380  -29.3839 C.3     5  HIS5        0.0161
     35 CG        -22.3759   -3.6580  -30.7442 C.ar    5  HIS5        0.0610
     36 CD2       -22.3434   -3.0370  -31.9773 C.ar    5  HIS5        0.0243
     37 NE2       -22.0615   -4.0252  -32.9040 N.ar    5  HIS5       -0.3506
     38 CE1       -21.9596   -5.1712  -32.2270 C.ar    5  HIS5        0.0936
     39 ND1       -22.1451   -5.0245  -30.9224 N.ar    5  HIS5       -0.2408
     40 CB        -20.7645   -5.8807  -24.7100 C.3     3  VAL3       -0.0197
     41 CG1       -21.7888   -5.7014  -23.5709 C.3     3  VAL3       -0.0605
     42 CG2       -20.6302   -4.5325  -25.4608 C.3     3  VAL3       -0.0605
     43 H         -13.6497   -2.3611  -27.0280 H       0  UNK0        0.0322
     44 H         -13.2010   -3.6710  -28.1335 H       0  UNK0        0.0322
     45 H         -14.8795   -3.1677  -27.9773 H       0  UNK0        0.0322
     46 H         -16.0910   -3.7557  -26.1170 H       1  SER1        0.1495
     47 HA        -15.1114   -6.3073  -24.9039 H       1  SER1        0.0618
     48 HB1       -15.9689   -4.7691  -23.1713 H       1  SER1        0.0580
     49 HB2       -17.0348   -6.1398  -23.4276 H       1  SER1        0.0580
     50 H         -18.2835   -4.7471  -24.8284 H       1  SER1        0.2095
     51 H         -15.9182   -8.0812  -25.8645 H       2  ALA2        0.1495
     52 HA        -17.9324   -8.1549  -27.8643 H       2  ALA2        0.0592
     53 HB1       -17.8291  -10.6232  -27.4449 H       2  ALA2        0.0252
     54 HB2       -16.2184   -9.9256  -27.5818 H       2  ALA2        0.0252
     55 HB3       -16.8629  -10.3482  -25.9975 H       2  ALA2        0.0252
     56 H         -19.6535   -6.9288  -27.1616 H       3  VAL3        0.1495
     57 HA        -21.3937   -7.9678  -25.0284 H       3  VAL3        0.0597
     58 H         -23.4365   -7.0153  -25.0509 H       4  PHE4        0.1495
     59 HA        -24.9427   -6.8628  -27.4442 H       4  PHE4        0.0598
     60 HB1       -25.4759   -5.7711  -24.6075 H       4  PHE4        0.0336
     61 HB2       -25.4617   -7.4631  -24.9660 H       4  PHE4        0.0336
     62 HD2       -27.1783   -4.8781  -27.1645 H       4  PHE4        0.0620
     63 HE2       -29.6182   -4.7690  -27.3045 H       4  PHE4        0.0618
     64 HZ        -31.0182   -6.2073  -25.8625 H       4  PHE4        0.0618
     65 HE1       -29.9876   -7.7994  -24.3148 H       4  PHE4        0.0618
     66 HD1       -27.5486   -7.9522  -24.1379 H       4  PHE4        0.0620
     67 H         -24.2371   -5.2431  -28.9080 H       5  HIS5        0.1494
     68 HA        -24.1078   -2.3923  -27.9801 H       5  HIS5        0.0578
     69 H         -26.0370   -3.5008  -29.6796 H       5  HIS5        0.1046
     70 HB1       -21.8824   -3.4543  -28.6897 H       5  HIS5        0.0351
     71 HB2       -22.3554   -1.9820  -29.4695 H       5  HIS5        0.0351
     72 HD2       -22.4843   -2.0028  -32.2550 H       5  HIS5        0.0825
     73 HE2       -21.9678   -3.9006  -33.9048 H       5  HIS5        0.1662
     74 HE1       -21.7534   -6.1258  -32.6858 H       5  HIS5        0.1027
     75 HB        -19.8086   -6.0856  -24.2264 H       3  VAL3        0.0318
     76 HG11      -22.7549   -5.3497  -23.9328 H       3  VAL3        0.0233
     77 HG12      -21.9540   -6.6324  -23.0276 H       3  VAL3        0.0233
     78 HG13      -21.4367   -4.9547  -22.8607 H       3  VAL3        0.0233
     79 HG21      -20.2841   -3.7425  -24.7937 H       3  VAL3        0.0233
     80 HG22      -19.9311   -4.5945  -26.2930 H       3  VAL3        0.0233
     81 HG23      -21.5807   -4.1882  -25.8674 H       3  VAL3        0.0233
@<TRIPOS>BOND
     1     1     2    1
     2     1    43    1
     3     1    44    1
     4     1    45    1
     5     2     3    2
     6     2     4   am
     7     4     5    1
     8     4    46    1
     9     5     6    1
    10     5     8    1
    11     5    47    1
    12     6     7    1
    13     6    48    1
    14     6    49    1
    15     7    50    1
    16     8     9    2
    17     8    10   am
    18    10    11    1
    19    10    51    1
    20    11    12    1
    21    11    13    1
    22    11    52    1
    23    12    53    1
    24    12    54    1
    25    12    55    1
    26    13    14    2
    27    13    15   am
    28    15    16    1
    29    15    56    1
    30    16    17    1
    31    16    40    1
    32    16    57    1
    33    17    18    2
    34    17    19   am
    35    19    20    1
    36    19    58    1
    37    20    21    1
    38    20    28    1
    39    20    59    1
    40    21    22    1
    41    21    60    1
    42    21    61    1
    43    22    27   ar
    44    22    23   ar
    45    23    24   ar
    46    23    62    1
    47    24    25   ar
    48    24    63    1
    49    25    26   ar
    50    25    64    1
    51    26    27   ar
    52    26    65    1
    53    27    66    1
    54    28    29    2
    55    28    30   am
    56    30    31    1
    57    30    67    1
    58    31    32    1
    59    31    34    1
    60    31    68    1
    61    32    33    2
    62    32    69    1
    63    34    35    1
    64    34    70    1
    65    34    71    1
    66    35    39   ar
    67    35    36   ar
    68    36    37   ar
    69    36    72    1
    70    37    38   ar
    71    37    73    1
    72    38    39   ar
    73    38    74    1
    74    40    41    1
    75    40    42    1
    76    40    75    1
    77    41    76    1
    78    41    77    1
    79    41    78    1
    80    42    79    1
    81    42    80    1
    82    42    81    1
