@<TRIPOS>MOLECULE
/home/lixiaoshuang.lxs/med/data/m_pro/PDB_BA/3vb6/3vb6_ligand.pdb
 29 28 0 0 0
SMALL
GASTEIGER

@<TRIPOS>ATOM
      1  N         -1.8720  -20.3410   36.9970 N.3     4  ALA4       -0.1231
      2  CA        -2.0290  -18.8910   36.9940 C.3     4  ALA4        0.1694
      3  C         -1.2160  -18.2740   38.1120 C.2     4  ALA4        0.2592
      4  O         -1.4930  -18.4920   39.2820 O.2     4  ALA4       -0.2718
      5  CB        -3.5090  -18.5310   37.1270 C.3     4  ALA4        0.0304
      6  N         -0.1830  -17.4960   37.7620 N.am    5  VAL5       -0.1966
      7  CA         0.6870  -16.8500   38.7520 C.3     5  VAL5        0.1727
      8  C          0.5390  -15.3480   38.8140 C.2     5  VAL5        0.2616
      9  O          1.2160  -14.6380   38.0790 O.2     5  VAL5       -0.2715
     10  CB         2.1190  -17.1950   38.3320 C.3     5  VAL5        0.0290
     11  CG1        3.1470  -16.4380   39.1720 C.3     5  VAL5        0.0023
     12  CG2        2.3730  -18.7030   38.3770 C.3     5  VAL5        0.0023
     13  N         -0.3440  -14.8630   39.6980 N.am    6  LEU6       -0.1963
     14  CA        -0.5890  -13.4300   39.8820 C.3     6  LEU6        0.1728
     15  C          0.7000  -12.6540   40.0610 C.2     6  LEU6        0.2615
     16  O          1.2260  -12.5410   41.1660 O.2     6  LEU6       -0.2715
     17  CB        -1.4440  -13.3380   41.1540 C.3     6  LEU6        0.0311
     18  CG        -2.9370  -13.6060   40.9210 C.3     6  LEU6        0.0022
     19  CD1       -3.7740  -12.6870   41.7990 C.3     6  LEU6        0.0001
     20  CD2       -3.3780  -13.4440   39.4640 C.3     6  LEU6        0.0001
     21  C          2.4390   -9.8780   39.2550 C.2     7  0JU7        0.1171
     22  NF         3.4150   -9.4210   39.9100 N.2     7  0JU7       -0.1496
     23  CA         2.4670  -11.3470   38.8960 C.3     7  0JU7        0.1387
     24  N          1.2160  -12.1130   38.9580 N.am    7  0JU7       -0.1995
     25  CB         2.8320  -11.4500   37.4210 C.3     7  0JU7        0.0375
     26  CG         4.3290  -11.5790   37.2120 C.3     7  0JU7        0.0907
     27  CD         4.4630  -12.3410   35.9250 C.2     7  0JU7        0.2608
     28  OE         3.6260  -12.1720   35.0540 O.2     7  0JU7       -0.2717
     29  NE         5.4970  -13.1770   35.8280 N.am    7  0JU7       -0.0878
@<TRIPOS>BOND
     1    28    27    2
     2    29    27   am
     3    27    26    1
     4     2     1    1
     5     2     5    1
     6     2     3    1
     7    26    25    1
     8    25    23    1
     9     6     3   am
    10     6     7    1
    11     9     8    2
    12     3     4    2
    13    10    12    1
    14    10     7    1
    15    10    11    1
    16     7     8    1
    17     8    13   am
    18    23    24    1
    19    23    21    1
    20    24    15   am
    21    21    22    2
    22    20    18    1
    23    13    14    1
    24    14    15    1
    25    14    17    1
    26    15    16    2
    27    18    17    1
    28    18    19    1
