@<TRIPOS>MOLECULE
*****
 86 87 0 0 0
SMALL
GASTEIGER
****
Schrodinger Suite 2019-4.
@<TRIPOS>ATOM
      1 C         -24.8538   -2.5886  -23.7849 C.3     1  UNL1       -0.0626
      2 C         -25.0515   -1.8234  -25.1095 C.3     1  UNL1       -0.0446
      3 C         -26.5147   -1.3883  -25.2833 C.3     1  UNL1       -0.0626
      4 C         -24.5747   -2.6010  -26.3648 C.3     1  UNL1       -0.0236
      5 C         -23.0444   -2.8330  -26.4220 C.3     1  UNL1        0.0996
      6 N         -22.5306   -2.8695  -27.7979 N.am    1  UNL1       -0.3025
      7 C         -22.8014   -3.7671  -28.7612 C.2     1  UNL1        0.2342
      8 O         -23.6893   -4.6165  -28.6960 O.2     1  UNL1       -0.2738
      9 C         -21.8705   -3.7177  -29.9945 C.3     1  UNL1        0.1017
     10 N         -21.6145   -5.0840  -30.4456 N.am    1  UNL1       -0.3022
     11 C         -20.4340   -5.7304  -30.4370 C.2     1  UNL1        0.2338
     12 O         -19.3596   -5.2300  -30.0809 O.2     1  UNL1       -0.2738
     13 C         -20.5089   -7.1995  -30.9103 C.3     1  UNL1        0.0997
     14 C         -19.5095   -8.0853  -30.1425 C.3     1  UNL1       -0.0380
     15 N         -20.1935   -7.2617  -32.3422 N.am    1  UNL1       -0.2701
     16 C         -20.8321   -8.1662  -33.1817 C.2     1  UNL1        0.4012
     17 O         -21.7295   -8.9532  -32.8720 O.2     1  UNL1       -0.2265
     18 O         -20.3233   -8.0299  -34.4238 O.3     1  UNL1       -0.4456
     19 C         -20.8798   -8.7105  -35.5487 C.3     1  UNL1        0.1191
     20 C         -19.7814   -9.4330  -36.3107 C.ar    1  UNL1       -0.0103
     21 C         -18.7344   -8.7032  -36.8803 C.ar    1  UNL1       -0.0554
     22 C         -17.7307   -9.3600  -37.5867 C.ar    1  UNL1       -0.0614
     23 C         -17.7828  -10.7472  -37.7230 C.ar    1  UNL1       -0.0617
     24 C         -18.8282  -11.4800  -37.1627 C.ar    1  UNL1       -0.0614
     25 C         -19.8294  -10.8219  -36.4519 C.ar    1  UNL1       -0.0554
     26 C         -22.5221   -2.8810  -31.1439 C.3     1  UNL1       -0.0197
     27 C         -22.6799   -1.3866  -30.7998 C.3     1  UNL1       -0.0605
     28 C         -23.8696   -3.4331  -31.6601 C.3     1  UNL1       -0.0605
     29 C         -22.6186   -4.0723  -25.6176 C.2     1  UNL1        0.2339
     30 O         -23.2905   -5.0982  -25.6844 O.2     1  UNL1       -0.2738
     31 N         -21.5189   -3.9142  -24.8556 N.am    1  UNL1       -0.3035
     32 C         -20.9989   -4.7497  -23.7623 C.3     1  UNL1        0.0944
     33 C         -20.8426   -6.2473  -24.1235 C.3     1  UNL1       -0.0020
     34 C         -19.5525   -6.5595  -24.8510 C.ar    1  UNL1       -0.0452
     35 C         -19.4422   -6.4248  -26.2488 C.ar    1  UNL1       -0.0585
     36 C         -18.2084   -6.6206  -26.8540 C.ar    1  UNL1       -0.0615
     37 C         -17.0888   -6.9249  -26.0844 C.ar    1  UNL1       -0.0617
     38 C         -17.1766   -7.0231  -24.7061 C.ar    1  UNL1       -0.0615
     39 C         -18.3982   -6.8244  -24.0871 C.ar    1  UNL1       -0.0585
     40 C         -21.7788   -4.4401  -22.4852 C.2     1  UNL1        0.2557
     41 O         -21.3098   -3.6258  -21.6812 O.2     1  UNL1       -0.2859
     42 C         -22.9818   -5.3135  -22.0560 C.3     1  UNL1        0.4525
     43 F         -23.8122   -4.5897  -21.3036 F       1  UNL1       -0.1633
     44 F         -23.6491   -5.7907  -23.1044 F       1  UNL1       -0.1633
     45 F         -22.5369   -6.3355  -21.3251 F       1  UNL1       -0.1633
     46 H         -23.8577   -2.4016  -23.3783 H       1  UNL1        0.0232
     47 H         -25.5650   -2.2899  -23.0150 H       1  UNL1        0.0232
     48 H         -24.9672   -3.6630  -23.9265 H       1  UNL1        0.0232
     49 H         -24.4682   -0.9047  -25.0418 H       1  UNL1        0.0296
     50 H         -26.5315   -0.3727  -25.6775 H       1  UNL1        0.0232
     51 H         -27.0353   -2.0311  -25.9926 H       1  UNL1        0.0232
     52 H         -27.0829   -1.3934  -24.3554 H       1  UNL1        0.0232
     53 H         -24.8607   -2.0299  -27.2463 H       1  UNL1        0.0290
     54 H         -25.1219   -3.5377  -26.4675 H       1  UNL1        0.0290
     55 H         -22.5664   -1.9650  -25.9743 H       1  UNL1        0.0594
     56 H         -21.8061   -2.1870  -28.0019 H       1  UNL1        0.1495
     57 H         -20.9318   -3.2449  -29.6981 H       1  UNL1        0.0597
     58 H         -22.4465   -5.5976  -30.6976 H       1  UNL1        0.1495
     59 H         -21.5189   -7.5678  -30.7044 H       1  UNL1        0.0593
     60 H         -19.6002   -9.1309  -30.4366 H       1  UNL1        0.0252
     61 H         -18.4772   -7.7787  -30.3218 H       1  UNL1        0.0252
     62 H         -19.6939   -8.0348  -29.0687 H       1  UNL1        0.0252
     63 H         -19.4691   -6.6599  -32.7092 H       1  UNL1        0.1528
     64 H         -21.3315   -7.9734  -36.2133 H       1  UNL1        0.0749
     65 H         -21.6698   -9.4130  -35.2821 H       1  UNL1        0.0749
     66 H         -18.7151   -7.6252  -36.7860 H       1  UNL1        0.0621
     67 H         -16.9201   -8.7991  -38.0299 H       1  UNL1        0.0618
     68 H         -17.0065  -11.2563  -38.2790 H       1  UNL1        0.0618
     69 H         -18.8599  -12.5550  -37.2770 H       1  UNL1        0.0618
     70 H         -20.6382  -11.3900  -36.0133 H       1  UNL1        0.0621
     71 H         -21.8253   -2.9238  -31.9858 H       1  UNL1        0.0318
     72 H         -23.0236   -0.8301  -31.6706 H       1  UNL1        0.0233
     73 H         -23.4141   -1.2322  -30.0053 H       1  UNL1        0.0233
     74 H         -21.7329   -0.9458  -30.4840 H       1  UNL1        0.0233
     75 H         -24.2249   -2.8554  -32.5139 H       1  UNL1        0.0233
     76 H         -23.7843   -4.4704  -31.9870 H       1  UNL1        0.0233
     77 H         -24.6484   -3.3856  -30.8964 H       1  UNL1        0.0233
     78 H         -21.0208   -3.0412  -24.9490 H       1  UNL1        0.1495
     79 H         -19.9884   -4.3766  -23.5788 H       1  UNL1        0.0584
     80 H         -21.6800   -6.6513  -24.6941 H       1  UNL1        0.0335
     81 H         -20.8294   -6.8289  -23.2049 H       1  UNL1        0.0335
     82 H         -20.3082   -6.1754  -26.8454 H       1  UNL1        0.0620
     83 H         -18.1312   -6.5253  -27.9270 H       1  UNL1        0.0618
     84 H         -16.1314   -7.0794  -26.5588 H       1  UNL1        0.0618
     85 H         -16.2921   -7.2420  -24.1228 H       1  UNL1        0.0618
     86 H         -18.4800   -6.8826  -23.0140 H       1  UNL1        0.0620
@<TRIPOS>BOND
     1     1     2    1
     2     1    46    1
     3     1    47    1
     4     1    48    1
     5     2     3    1
     6     2     4    1
     7     2    49    1
     8     3    50    1
     9     3    51    1
    10     3    52    1
    11     4     5    1
    12     4    53    1
    13     4    54    1
    14     5     6    1
    15     5    29    1
    16     5    55    1
    17     6     7   am
    18     6    56    1
    19     7     8    2
    20     7     9    1
    21     9    10    1
    22     9    26    1
    23     9    57    1
    24    10    11   am
    25    10    58    1
    26    11    12    2
    27    11    13    1
    28    13    14    1
    29    13    15    1
    30    13    59    1
    31    14    60    1
    32    14    61    1
    33    14    62    1
    34    15    16   am
    35    15    63    1
    36    16    17    2
    37    16    18    1
    38    18    19    1
    39    19    20    1
    40    19    64    1
    41    19    65    1
    42    20    25   ar
    43    20    21   ar
    44    21    22   ar
    45    21    66    1
    46    22    23   ar
    47    22    67    1
    48    23    24   ar
    49    23    68    1
    50    24    25   ar
    51    24    69    1
    52    25    70    1
    53    26    27    1
    54    26    28    1
    55    26    71    1
    56    27    72    1
    57    27    73    1
    58    27    74    1
    59    28    75    1
    60    28    76    1
    61    28    77    1
    62    29    30    2
    63    29    31   am
    64    31    32    1
    65    31    78    1
    66    32    33    1
    67    32    40    1
    68    32    79    1
    69    33    34    1
    70    33    80    1
    71    33    81    1
    72    34    39   ar
    73    34    35   ar
    74    35    36   ar
    75    35    82    1
    76    36    37   ar
    77    36    83    1
    78    37    38   ar
    79    37    84    1
    80    38    39   ar
    81    38    85    1
    82    39    86    1
    83    40    41    2
    84    40    42    1
    85    42    43    1
    86    42    44    1
    87    42    45    1
