
                    3D
 Schrodinger Suite 2019-4.
 86 87  0  0  1  0            999 V2000
  -24.8538   -2.5886  -23.7849 C   0  0  0  0  0  0
  -25.0515   -1.8234  -25.1095 C   0  0  0  0  0  0
  -26.5147   -1.3883  -25.2833 C   0  0  0  0  0  0
  -24.5747   -2.6010  -26.3648 C   0  0  0  0  0  0
  -23.0444   -2.8330  -26.4220 C   0  0  2  0  0  0
  -22.5306   -2.8695  -27.7979 N   0  0  0  0  0  0
  -22.8014   -3.7671  -28.7612 C   0  0  0  0  0  0
  -23.6893   -4.6165  -28.6960 O   0  0  0  0  0  0
  -21.8705   -3.7177  -29.9945 C   0  0  1  0  0  0
  -21.6145   -5.0840  -30.4456 N   0  0  0  0  0  0
  -20.4340   -5.7304  -30.4370 C   0  0  0  0  0  0
  -19.3596   -5.2300  -30.0809 O   0  0  0  0  0  0
  -20.5089   -7.1995  -30.9103 C   0  0  2  0  0  0
  -19.5095   -8.0853  -30.1425 C   0  0  0  0  0  0
  -20.1935   -7.2617  -32.3422 N   0  0  0  0  0  0
  -20.8321   -8.1662  -33.1817 C   0  0  0  0  0  0
  -21.7295   -8.9532  -32.8720 O   0  0  0  0  0  0
  -20.3233   -8.0299  -34.4238 O   0  0  0  0  0  0
  -20.8798   -8.7105  -35.5487 C   0  0  0  0  0  0
  -19.7814   -9.4330  -36.3107 C   0  0  0  0  0  0
  -18.7344   -8.7032  -36.8803 C   0  0  0  0  0  0
  -17.7307   -9.3600  -37.5867 C   0  0  0  0  0  0
  -17.7828  -10.7472  -37.7230 C   0  0  0  0  0  0
  -18.8282  -11.4800  -37.1627 C   0  0  0  0  0  0
  -19.8294  -10.8219  -36.4519 C   0  0  0  0  0  0
  -22.5221   -2.8810  -31.1439 C   0  0  0  0  0  0
  -22.6799   -1.3866  -30.7998 C   0  0  0  0  0  0
  -23.8696   -3.4331  -31.6601 C   0  0  0  0  0  0
  -22.6186   -4.0723  -25.6176 C   0  0  0  0  0  0
  -23.2905   -5.0982  -25.6844 O   0  0  0  0  0  0
  -21.5189   -3.9142  -24.8556 N   0  0  0  0  0  0
  -20.9989   -4.7497  -23.7623 C   0  0  2  0  0  0
  -20.8426   -6.2473  -24.1235 C   0  0  0  0  0  0
  -19.5525   -6.5595  -24.8510 C   0  0  0  0  0  0
  -19.4422   -6.4248  -26.2488 C   0  0  0  0  0  0
  -18.2084   -6.6206  -26.8540 C   0  0  0  0  0  0
  -17.0888   -6.9249  -26.0844 C   0  0  0  0  0  0
  -17.1766   -7.0231  -24.7061 C   0  0  0  0  0  0
  -18.3982   -6.8244  -24.0871 C   0  0  0  0  0  0
  -21.7788   -4.4401  -22.4852 C   0  0  0  0  0  0
  -21.3098   -3.6258  -21.6812 O   0  0  0  0  0  0
  -22.9818   -5.3135  -22.0560 C   0  0  0  0  0  0
  -23.8122   -4.5897  -21.3036 F   0  0  0  0  0  0
  -23.6491   -5.7907  -23.1044 F   0  0  0  0  0  0
  -22.5369   -6.3355  -21.3251 F   0  0  0  0  0  0
  -23.8577   -2.4016  -23.3783 H   0  0  0  0  0  0
  -25.5650   -2.2899  -23.0150 H   0  0  0  0  0  0
  -24.9672   -3.6630  -23.9265 H   0  0  0  0  0  0
  -24.4682   -0.9047  -25.0418 H   0  0  0  0  0  0
  -26.5315   -0.3727  -25.6775 H   0  0  0  0  0  0
  -27.0353   -2.0311  -25.9926 H   0  0  0  0  0  0
  -27.0829   -1.3934  -24.3554 H   0  0  0  0  0  0
  -24.8607   -2.0299  -27.2463 H   0  0  0  0  0  0
  -25.1219   -3.5377  -26.4675 H   0  0  0  0  0  0
  -22.5664   -1.9650  -25.9743 H   0  0  0  0  0  0
  -21.8061   -2.1870  -28.0019 H   0  0  0  0  0  0
  -20.9318   -3.2449  -29.6981 H   0  0  0  0  0  0
  -22.4465   -5.5976  -30.6976 H   0  0  0  0  0  0
  -21.5189   -7.5678  -30.7044 H   0  0  0  0  0  0
  -19.6002   -9.1309  -30.4366 H   0  0  0  0  0  0
  -18.4772   -7.7787  -30.3218 H   0  0  0  0  0  0
  -19.6939   -8.0348  -29.0687 H   0  0  0  0  0  0
  -19.4691   -6.6599  -32.7092 H   0  0  0  0  0  0
  -21.3315   -7.9734  -36.2133 H   0  0  0  0  0  0
  -21.6698   -9.4130  -35.2821 H   0  0  0  0  0  0
  -18.7151   -7.6252  -36.7860 H   0  0  0  0  0  0
  -16.9201   -8.7991  -38.0299 H   0  0  0  0  0  0
  -17.0065  -11.2563  -38.2790 H   0  0  0  0  0  0
  -18.8599  -12.5550  -37.2770 H   0  0  0  0  0  0
  -20.6382  -11.3900  -36.0133 H   0  0  0  0  0  0
  -21.8253   -2.9238  -31.9858 H   0  0  0  0  0  0
  -23.0236   -0.8301  -31.6706 H   0  0  0  0  0  0
  -23.4141   -1.2322  -30.0053 H   0  0  0  0  0  0
  -21.7329   -0.9458  -30.4840 H   0  0  0  0  0  0
  -24.2249   -2.8554  -32.5139 H   0  0  0  0  0  0
  -23.7843   -4.4704  -31.9870 H   0  0  0  0  0  0
  -24.6484   -3.3856  -30.8964 H   0  0  0  0  0  0
  -21.0208   -3.0412  -24.9490 H   0  0  0  0  0  0
  -19.9884   -4.3766  -23.5788 H   0  0  0  0  0  0
  -21.6800   -6.6513  -24.6941 H   0  0  0  0  0  0
  -20.8294   -6.8289  -23.2049 H   0  0  0  0  0  0
  -20.3082   -6.1754  -26.8454 H   0  0  0  0  0  0
  -18.1312   -6.5253  -27.9270 H   0  0  0  0  0  0
  -16.1314   -7.0794  -26.5588 H   0  0  0  0  0  0
  -16.2921   -7.2420  -24.1228 H   0  0  0  0  0  0
  -18.4800   -6.8826  -23.0140 H   0  0  0  0  0  0
  1  2  1  0  0  0
  1 46  1  0  0  0
  1 47  1  0  0  0
  1 48  1  0  0  0
  2  3  1  0  0  0
  2  4  1  0  0  0
  2 49  1  0  0  0
  3 50  1  0  0  0
  3 51  1  0  0  0
  3 52  1  0  0  0
  4  5  1  0  0  0
  4 53  1  0  0  0
  4 54  1  0  0  0
  5  6  1  0  0  0
  5 29  1  0  0  0
  5 55  1  0  0  0
  6  7  1  0  0  0
  6 56  1  0  0  0
  7  8  2  0  0  0
  7  9  1  0  0  0
  9 10  1  0  0  0
  9 26  1  0  0  0
  9 57  1  0  0  0
 10 11  1  0  0  0
 10 58  1  0  0  0
 11 12  2  0  0  0
 11 13  1  0  0  0
 13 14  1  0  0  0
 13 15  1  0  0  0
 13 59  1  0  0  0
 14 60  1  0  0  0
 14 61  1  0  0  0
 14 62  1  0  0  0
 15 16  1  0  0  0
 15 63  1  0  0  0
 16 17  2  0  0  0
 16 18  1  0  0  0
 18 19  1  0  0  0
 19 20  1  0  0  0
 19 64  1  0  0  0
 19 65  1  0  0  0
 20 25  1  0  0  0
 20 21  2  0  0  0
 21 22  1  0  0  0
 21 66  1  0  0  0
 22 23  2  0  0  0
 22 67  1  0  0  0
 23 24  1  0  0  0
 23 68  1  0  0  0
 24 25  2  0  0  0
 24 69  1  0  0  0
 25 70  1  0  0  0
 26 27  1  0  0  0
 26 28  1  0  0  0
 26 71  1  0  0  0
 27 72  1  0  0  0
 27 73  1  0  0  0
 27 74  1  0  0  0
 28 75  1  0  0  0
 28 76  1  0  0  0
 28 77  1  0  0  0
 29 30  2  0  0  0
 29 31  1  0  0  0
 31 32  1  0  0  0
 31 78  1  0  0  0
 32 33  1  0  0  0
 32 40  1  0  0  0
 32 79  1  0  0  0
 33 34  1  0  0  0
 33 80  1  0  0  0
 33 81  1  0  0  0
 34 39  1  0  0  0
 34 35  2  0  0  0
 35 36  1  0  0  0
 35 82  1  0  0  0
 36 37  2  0  0  0
 36 83  1  0  0  0
 37 38  1  0  0  0
 37 84  1  0  0  0
 38 39  2  0  0  0
 38 85  1  0  0  0
 39 86  1  0  0  0
 40 41  2  0  0  0
 40 42  1  0  0  0
 42 43  1  0  0  0
 42 44  1  0  0  0
 42 45  1  0  0  0
M  END
$$$$
