@<TRIPOS>MOLECULE
/home/lixiaoshuang.lxs/med/data/m_pro/PDB_BA/2zu5/2zu5_ligand.pdb
 45 47 0 0 0
SMALL
GASTEIGER

@<TRIPOS>ATOM
      1  C72       18.6370    3.6200   20.0610 C.2   2001  ZU52001     0.4219
      2  O74       19.8400    3.3830   20.3030 O.2   2001  ZU52001    -0.2245
      3  O76       18.5340    4.4600   18.9720 O.3   2001  ZU52001    -0.4285
      4  C78       19.5010    5.0810   18.1090 C.3   2001  ZU52001     0.2368
      5  C80       20.2380    6.1950   18.8100 C.ar  2001  ZU52001     0.0213
      6  C82       21.4910    6.0220   19.3150 C.ar  2001  ZU52001    -0.0007
      7  C83       22.2610    7.0770   20.0130 C.ar  2001  ZU52001    -0.0002
      8  C84       21.6250    8.4120   20.1730 C.ar  2001  ZU52001    -0.0000
      9  C85       20.2720    8.5950   19.6270 C.ar  2001  ZU52001    -0.0002
     10  C86       19.5820    7.4820   18.9470 C.ar  2001  ZU52001    -0.0007
     11  N70       17.6680    3.0370   20.8770 N.am  2001  ZU52001    -0.1585
     12  C54       17.8840    2.1690   21.9970 C.3   2001  ZU52001     0.2029
     13  C50       16.9660    1.1040   21.7780 C.2   2001  ZU52001     0.2642
     14  O52       15.7790    0.9270   21.7220 O.2   2001  ZU52001    -0.2714
     15  C56       17.5360    2.9700   23.2490 C.3   2001  ZU52001     0.1439
     16  O60       18.2700    4.1480   23.7710 O.3   2001  ZU52001    -0.3587
     17  C58       17.7730    2.1210   24.5500 C.3   2001  ZU52001     0.0344
     18  C62       17.8120    5.5420   24.0750 C.3   2001  ZU52001     0.0930
     19  C64       16.4110    5.4460   24.6760 C.3   2001  ZU52001     0.0296
     20  C66       17.7080    6.3340   22.6740 C.3   2001  ZU52001     0.0296
     21  C68       19.0080    6.3320   24.5710 C.3   2001  ZU52001     0.0296
     22  N48       17.8210    0.0890   21.6290 N.am  2001  ZU52001    -0.1963
     23  C38       17.3130   -1.2660   21.4000 C.3   2001  ZU52001     0.1728
     24  C34       16.6500   -1.8650   22.6360 C.2   2001  ZU52001     0.2612
     25  O36       17.2120   -1.7270   23.7130 O.2   2001  ZU52001    -0.2715
     26  C40       18.4390   -2.1000   20.7340 C.3   2001  ZU52001     0.0311
     27  C42       19.0910   -2.1200   19.3660 C.3   2001  ZU52001     0.0022
     28  C44       18.0560   -2.2770   18.2430 C.3   2001  ZU52001     0.0001
     29  C46       20.1420   -3.2480   19.3100 C.3   2001  ZU52001     0.0001
     30  C1        16.1530   -7.3010   24.9600 C.3   2001  ZU52001     0.0576
     31  C2        17.2660   -7.7130   23.9620 C.3   2001  ZU52001     0.0078
     32  C4        17.5650   -6.6500   25.0110 C.3   2001  ZU52001     0.0078
     33  C7        15.0940   -6.2300   24.6040 C.2   2001  ZU52001     0.1503
     34  C9        15.3920   -5.0530   23.6930 C.3   2001  ZU52001     0.0663
     35  C11       14.3790   -4.2190   23.4890 C.3   2001  ZU52001     0.0294
     36  C13       14.5370   -2.8040   23.6380 C.3   2001  ZU52001     0.0963
     37  C15       13.4960   -1.7050   23.8700 C.3   2001  ZU52001     0.0309
     38  C17       13.5530   -0.2100   24.3000 C.3   2001  ZU52001     0.0817
     39  C19       14.0390   -0.1500   25.7540 C.3   2001  ZU52001     0.0326
     40  C21       13.4760    1.1700   26.2870 C.3   2001  ZU52001     0.1156
     41  N23       12.2510    1.2910   25.5530 N.am  2001  ZU52001    -0.2054
     42  C25       12.2850    0.5020   24.4090 C.2   2001  ZU52001     0.2410
     43  O28       11.3530    0.4180   23.5800 O.2   2001  ZU52001    -0.2734
     44  O30       13.9680   -6.3740   25.0970 O.2   2001  ZU52001    -0.2961
     45  N32       15.3750   -2.5530   22.5980 N.am  2001  ZU52001    -0.2057
@<TRIPOS>BOND
     1     4     5    1
     2     4     3    1
     3    28    27    1
     4     5    10   ar
     5     5     6   ar
     6    10     9   ar
     7     3     1    1
     8    29    27    1
     9     6     7   ar
    10    27    26    1
    11     9     8   ar
    12     7     8   ar
    13     1     2    2
    14     1    11   am
    15    26    23    1
    16    11    12    1
    17    23    22    1
    18    23    24    1
    19    22    13   am
    20    14    13    2
    21    13    12    1
    22    12    15    1
    23    45    24   am
    24    45    36    1
    25    24    25    2
    26    20    18    1
    27    15    16    1
    28    15    17    1
    29    35    36    1
    30    35    34    1
    31    43    42    2
    32    36    37    1
    33    34    33    1
    34    16    18    1
    35    37    38    1
    36    31    30    1
    37    31    32    1
    38    18    21    1
    39    18    19    1
    40    38    42    1
    41    38    39    1
    42    42    41   am
    43    33    30    1
    44    33    44    2
    45    30    32    1
    46    41    40    1
    47    39    40    1
