
                    3D
 Schrodinger Suite 2019-4.
 71 74  0  0  1  0            999 V2000
  -21.1443   -9.3873  -33.8994 C   0  0  0  0  0  0
  -21.1121   -9.3426  -32.3566 C   0  0  0  0  0  0
  -19.9607   -8.5142  -31.6770 C   0  0  0  0  0  0
  -19.3995   -9.3380  -30.4981 C   0  0  0  0  0  0
  -18.7786   -8.2035  -32.6313 C   0  0  0  0  0  0
  -20.4514   -7.2616  -31.0857 N   0  0  0  0  0  0
  -21.0741   -6.2369  -31.6974 C   0  0  0  0  0  0
  -21.4040   -6.2661  -32.8847 O   0  0  0  0  0  0
  -21.3356   -4.9570  -30.8425 C   0  0  1  0  0  0
  -22.4897   -4.1467  -31.3538 C   0  0  0  0  0  0
  -23.6350   -4.5131  -32.0867 C   0  0  0  0  0  0
  -24.4867   -3.4264  -32.1411 C   0  0  0  0  0  0
  -23.9185   -2.3986  -31.4401 N   0  0  0  0  0  0
  -24.5038   -1.1182  -31.1430 C   0  0  0  0  0  0
  -22.6773   -2.8082  -31.0402 C   0  0  0  0  0  0
  -21.4503   -5.1532  -29.3572 N   0  0  0  0  0  0
  -20.3357   -5.1659  -28.5664 C   0  0  0  0  0  0
  -19.2052   -5.1739  -29.0567 O   0  0  0  0  0  0
  -20.4778   -5.1315  -27.0203 C   0  0  0  0  0  0
  -19.2147   -5.1116  -26.2813 N   0  0  0  0  0  0
  -18.5481   -3.9532  -26.0981 N   0  0  0  0  0  0
  -17.3276   -4.2340  -25.5260 N   0  0  0  0  0  0
  -17.2498   -5.5837  -25.3778 C   0  0  0  0  0  0
  -16.2093   -6.3843  -24.8979 C   0  0  0  0  0  0
  -16.4041   -7.7649  -24.8706 C   0  0  0  0  0  0
  -17.6057   -8.3327  -25.2915 C   0  0  0  0  0  0
  -18.6618   -7.5546  -25.7736 C   0  0  0  0  0  0
  -18.4540   -6.1746  -25.8266 C   0  0  0  0  0  0
  -22.7235   -5.3501  -28.7803 C   0  0  0  0  0  0
  -23.3420   -6.5981  -28.8817 C   0  0  0  0  0  0
  -24.6353   -6.7715  -28.3954 C   0  0  0  0  0  0
  -25.3181   -5.6891  -27.8188 C   0  0  0  0  0  0
  -26.6187   -5.7522  -27.2899 N   0  0  0  0  0  0
  -27.5209   -6.7537  -27.3157 C   0  0  0  0  0  0
  -28.8270   -6.4629  -26.5897 C   0  0  0  0  0  0
  -27.3815   -7.8362  -27.8841 O   0  0  0  0  0  0
  -24.6934   -4.4434  -27.7284 C   0  0  0  0  0  0
  -23.4000   -4.2707  -28.2041 C   0  0  0  0  0  0
  -22.0044   -9.9534  -34.2555 H   0  0  0  0  0  0
  -21.2054   -8.3914  -34.3375 H   0  0  0  0  0  0
  -20.2552   -9.8731  -34.3024 H   0  0  0  0  0  0
  -21.0812  -10.3785  -32.0159 H   0  0  0  0  0  0
  -22.0820   -8.9804  -32.0101 H   0  0  0  0  0  0
  -18.6055   -8.8031  -29.9733 H   0  0  0  0  0  0
  -20.1776   -9.5763  -29.7708 H   0  0  0  0  0  0
  -18.9746  -10.2834  -30.8387 H   0  0  0  0  0  0
  -17.9853   -7.6648  -32.1125 H   0  0  0  0  0  0
  -18.3383   -9.1137  -33.0396 H   0  0  0  0  0  0
  -19.0806   -7.5780  -33.4718 H   0  0  0  0  0  0
  -20.1673   -7.1064  -30.1305 H   0  0  0  0  0  0
  -20.4433   -4.3555  -31.0191 H   0  0  0  0  0  0
  -23.8422   -5.4921  -32.4946 H   0  0  0  0  0  0
  -25.4699   -3.3152  -32.5734 H   0  0  0  0  0  0
  -23.7461   -0.3550  -31.2968 H   0  0  0  0  0  0
  -25.3785   -0.9374  -31.7658 H   0  0  0  0  0  0
  -24.8122   -1.1161  -30.0990 H   0  0  0  0  0  0
  -22.0578   -2.1402  -30.4585 H   0  0  0  0  0  0
  -21.0624   -5.9809  -26.6649 H   0  0  0  0  0  0
  -21.0227   -4.2266  -26.7445 H   0  0  0  0  0  0
  -15.2663   -5.9588  -24.5868 H   0  0  0  0  0  0
  -15.5986   -8.4011  -24.5313 H   0  0  0  0  0  0
  -17.7220   -9.4070  -25.2622 H   0  0  0  0  0  0
  -19.5867   -8.0066  -26.0982 H   0  0  0  0  0  0
  -22.8342   -7.4246  -29.3562 H   0  0  0  0  0  0
  -25.0839   -7.7479  -28.4868 H   0  0  0  0  0  0
  -26.9215   -4.9047  -26.8309 H   0  0  0  0  0  0
  -29.1276   -7.3206  -25.9872 H   0  0  0  0  0  0
  -28.7461   -5.5953  -25.9316 H   0  0  0  0  0  0
  -29.6055   -6.2587  -27.3225 H   0  0  0  0  0  0
  -25.2075   -3.5945  -27.2988 H   0  0  0  0  0  0
  -22.9370   -3.2950  -28.1495 H   0  0  0  0  0  0
  1  2  1  0  0  0
  1 39  1  0  0  0
  1 40  1  0  0  0
  1 41  1  0  0  0
  2  3  1  0  0  0
  2 42  1  0  0  0
  2 43  1  0  0  0
  3  4  1  0  0  0
  3  5  1  0  0  0
  3  6  1  0  0  0
  4 44  1  0  0  0
  4 45  1  0  0  0
  4 46  1  0  0  0
  5 47  1  0  0  0
  5 48  1  0  0  0
  5 49  1  0  0  0
  6  7  1  0  0  0
  6 50  1  0  0  0
  7  8  2  0  0  0
  7  9  1  0  0  0
  9 10  1  0  0  0
  9 16  1  0  0  0
  9 51  1  0  0  0
 10 15  2  0  0  0
 10 11  1  0  0  0
 11 12  2  0  0  0
 11 52  1  0  0  0
 12 13  1  0  0  0
 12 53  1  0  0  0
 13 14  1  0  0  0
 13 15  1  0  0  0
 14 54  1  0  0  0
 14 55  1  0  0  0
 14 56  1  0  0  0
 15 57  1  0  0  0
 16 17  1  0  0  0
 16 29  1  0  0  0
 17 18  2  0  0  0
 17 19  1  0  0  0
 19 20  1  0  0  0
 19 58  1  0  0  0
 19 59  1  0  0  0
 20 28  1  0  0  0
 20 21  1  0  0  0
 21 22  2  0  0  0
 22 23  1  0  0  0
 23 28  2  0  0  0
 23 24  1  0  0  0
 24 25  2  0  0  0
 24 60  1  0  0  0
 25 26  1  0  0  0
 25 61  1  0  0  0
 26 27  2  0  0  0
 26 62  1  0  0  0
 27 28  1  0  0  0
 27 63  1  0  0  0
 29 38  1  0  0  0
 29 30  2  0  0  0
 30 31  1  0  0  0
 30 64  1  0  0  0
 31 32  2  0  0  0
 31 65  1  0  0  0
 32 33  1  0  0  0
 32 37  1  0  0  0
 33 34  1  0  0  0
 33 66  1  0  0  0
 34 35  1  0  0  0
 34 36  2  0  0  0
 35 67  1  0  0  0
 35 68  1  0  0  0
 35 69  1  0  0  0
 37 38  2  0  0  0
 37 70  1  0  0  0
 38 71  1  0  0  0
M  END
$$$$
