@<TRIPOS>MOLECULE
*****
 71 74 0 0 0
SMALL
GASTEIGER
****
Schrodinger Suite 2019-4.
@<TRIPOS>ATOM
      1 C         -21.1443   -9.3873  -33.8994 C.3     1  UNL1       -0.0634
      2 C         -21.1121   -9.3426  -32.3566 C.3     1  UNL1       -0.0350
      3 C         -19.9607   -8.5142  -31.6770 C.3     1  UNL1        0.0288
      4 C         -19.3995   -9.3380  -30.4981 C.3     1  UNL1       -0.0440
      5 C         -18.7786   -8.2035  -32.6313 C.3     1  UNL1       -0.0440
      6 N         -20.4514   -7.2616  -31.0857 N.am    1  UNL1       -0.3085
      7 C         -21.0741   -6.2369  -31.6974 C.2     1  UNL1        0.2389
      8 O         -21.4040   -6.2661  -32.8847 O.2     1  UNL1       -0.2734
      9 C         -21.3356   -4.9570  -30.8425 C.3     1  UNL1        0.1334
     10 C         -22.4897   -4.1467  -31.3538 C.ar    1  UNL1       -0.0004
     11 C         -23.6350   -4.5131  -32.0867 C.ar    1  UNL1       -0.0388
     12 C         -24.4867   -3.4264  -32.1411 C.ar    1  UNL1        0.0046
     13 N         -23.9185   -2.3986  -31.4401 N.ar    1  UNL1       -0.3559
     14 C         -24.5038   -1.1182  -31.1430 C.3     1  UNL1        0.0113
     15 C         -22.6773   -2.8082  -31.0402 C.ar    1  UNL1        0.0097
     16 N         -21.4503   -5.1532  -29.3572 N.am    1  UNL1       -0.2538
     17 C         -20.3357   -5.1659  -28.5664 C.2     1  UNL1        0.2423
     18 O         -19.2052   -5.1739  -29.0567 O.2     1  UNL1       -0.2732
     19 C         -20.4778   -5.1315  -27.0203 C.3     1  UNL1        0.1204
     20 N         -19.2147   -5.1116  -26.2813 N.ar    1  UNL1       -0.2351
     21 N         -18.5481   -3.9532  -26.0981 N.ar    1  UNL1       -0.0641
     22 N         -17.3276   -4.2340  -25.5260 N.ar    1  UNL1       -0.1295
     23 C         -17.2498   -5.5837  -25.3778 C.ar    1  UNL1        0.1127
     24 C         -16.2093   -6.3843  -24.8979 C.ar    1  UNL1       -0.0324
     25 C         -16.4041   -7.7649  -24.8706 C.ar    1  UNL1       -0.0596
     26 C         -17.6057   -8.3327  -25.2915 C.ar    1  UNL1       -0.0596
     27 C         -18.6618   -7.5546  -25.7736 C.ar    1  UNL1       -0.0345
     28 C         -18.4540   -6.1746  -25.8266 C.ar    1  UNL1        0.0895
     29 C         -22.7235   -5.3501  -28.7803 C.ar    1  UNL1        0.0376
     30 C         -23.3420   -6.5981  -28.8817 C.ar    1  UNL1       -0.0385
     31 C         -24.6353   -6.7715  -28.3954 C.ar    1  UNL1       -0.0387
     32 C         -25.3181   -5.6891  -27.8188 C.ar    1  UNL1        0.0335
     33 N         -26.6187   -5.7522  -27.2899 N.am    1  UNL1       -0.2857
     34 C         -27.5209   -6.7537  -27.3157 C.2     1  UNL1        0.2141
     35 C         -28.8270   -6.4629  -26.5897 C.3     1  UNL1        0.0125
     36 O         -27.3815   -7.8362  -27.8841 O.2     1  UNL1       -0.2758
     37 C         -24.6934   -4.4434  -27.7284 C.ar    1  UNL1       -0.0387
     38 C         -23.4000   -4.2707  -28.2041 C.ar    1  UNL1       -0.0385
     39 H         -22.0044   -9.9534  -34.2555 H       1  UNL1        0.0230
     40 H         -21.2054   -8.3914  -34.3375 H       1  UNL1        0.0230
     41 H         -20.2552   -9.8731  -34.3024 H       1  UNL1        0.0230
     42 H         -21.0812  -10.3785  -32.0159 H       1  UNL1        0.0283
     43 H         -22.0820   -8.9804  -32.0101 H       1  UNL1        0.0283
     44 H         -18.6055   -8.8031  -29.9733 H       1  UNL1        0.0250
     45 H         -20.1776   -9.5763  -29.7708 H       1  UNL1        0.0250
     46 H         -18.9746  -10.2834  -30.8387 H       1  UNL1        0.0250
     47 H         -17.9853   -7.6648  -32.1125 H       1  UNL1        0.0250
     48 H         -18.3383   -9.1137  -33.0396 H       1  UNL1        0.0250
     49 H         -19.0806   -7.5780  -33.4718 H       1  UNL1        0.0250
     50 H         -20.1673   -7.1064  -30.1305 H       1  UNL1        0.1493
     51 H         -20.4433   -4.3555  -31.0191 H       1  UNL1        0.0652
     52 H         -23.8422   -5.4921  -32.4946 H       1  UNL1        0.0636
     53 H         -25.4699   -3.3152  -32.5734 H       1  UNL1        0.0809
     54 H         -23.7461   -0.3550  -31.2968 H       1  UNL1        0.0455
     55 H         -25.3785   -0.9374  -31.7658 H       1  UNL1        0.0455
     56 H         -24.8122   -1.1161  -30.0990 H       1  UNL1        0.0455
     57 H         -22.0578   -2.1402  -30.4585 H       1  UNL1        0.0812
     58 H         -21.0624   -5.9809  -26.6649 H       1  UNL1        0.0606
     59 H         -21.0227   -4.2266  -26.7445 H       1  UNL1        0.0606
     60 H         -15.2663   -5.9588  -24.5868 H       1  UNL1        0.0640
     61 H         -15.5986   -8.4011  -24.5313 H       1  UNL1        0.0618
     62 H         -17.7220   -9.4070  -25.2622 H       1  UNL1        0.0618
     63 H         -19.5867   -8.0066  -26.0982 H       1  UNL1        0.0639
     64 H         -22.8342   -7.4246  -29.3562 H       1  UNL1        0.0637
     65 H         -25.0839   -7.7479  -28.4868 H       1  UNL1        0.0637
     66 H         -26.9215   -4.9047  -26.8309 H       1  UNL1        0.1548
     67 H         -29.1276   -7.3206  -25.9872 H       1  UNL1        0.0323
     68 H         -28.7461   -5.5953  -25.9316 H       1  UNL1        0.0323
     69 H         -29.6055   -6.2587  -27.3225 H       1  UNL1        0.0323
     70 H         -25.2075   -3.5945  -27.2988 H       1  UNL1        0.0637
     71 H         -22.9370   -3.2950  -28.1495 H       1  UNL1        0.0637
@<TRIPOS>BOND
     1     1     2    1
     2     1    39    1
     3     1    40    1
     4     1    41    1
     5     2     3    1
     6     2    42    1
     7     2    43    1
     8     3     4    1
     9     3     5    1
    10     3     6    1
    11     4    44    1
    12     4    45    1
    13     4    46    1
    14     5    47    1
    15     5    48    1
    16     5    49    1
    17     6     7   am
    18     6    50    1
    19     7     8    2
    20     7     9    1
    21     9    10    1
    22     9    16    1
    23     9    51    1
    24    10    15   ar
    25    10    11   ar
    26    11    12   ar
    27    11    52    1
    28    12    13   ar
    29    12    53    1
    30    13    14    1
    31    13    15   ar
    32    14    54    1
    33    14    55    1
    34    14    56    1
    35    15    57    1
    36    16    17   am
    37    16    29    1
    38    17    18    2
    39    17    19    1
    40    19    20    1
    41    19    58    1
    42    19    59    1
    43    20    28   ar
    44    20    21   ar
    45    21    22   ar
    46    22    23   ar
    47    23    28   ar
    48    23    24   ar
    49    24    25   ar
    50    24    60    1
    51    25    26   ar
    52    25    61    1
    53    26    27   ar
    54    26    62    1
    55    27    28   ar
    56    27    63    1
    57    29    38   ar
    58    29    30   ar
    59    30    31   ar
    60    30    64    1
    61    31    32   ar
    62    31    65    1
    63    32    33    1
    64    32    37   ar
    65    33    34   am
    66    33    66    1
    67    34    35    1
    68    34    36    2
    69    35    67    1
    70    35    68    1
    71    35    69    1
    72    37    38   ar
    73    37    70    1
    74    38    71    1
