@<TRIPOS>MOLECULE
*****
 70 73 0 0 0
SMALL
GASTEIGER
****
Schrodinger Suite 2019-4.
@<TRIPOS>ATOM
      1 C         -24.9665   -1.9614  -31.5931 C.3     1  UNL1       -0.0653
      2 C         -24.6015   -2.4556  -30.1977 C.3     1  UNL1       -0.0558
      3 C         -23.3266   -3.2966  -30.2018 C.3     1  UNL1       -0.0512
      4 C         -23.0177   -3.8684  -28.8133 C.3     1  UNL1       -0.0259
      5 C         -21.5641   -4.3500  -28.6884 C.3     1  UNL1        0.1025
      6 N         -21.3122   -5.4404  -29.6301 N.am    1  UNL1       -0.2698
      7 C         -20.0405   -5.9152  -29.8963 C.2     1  UNL1        0.4012
      8 O         -18.9886   -5.3849  -29.5486 O.2     1  UNL1       -0.2265
      9 O         -20.1331   -7.1174  -30.4778 O.3     1  UNL1       -0.4456
     10 C         -18.9702   -7.9332  -30.5916 C.3     1  UNL1        0.1191
     11 C         -18.5356   -8.6227  -29.3003 C.ar    1  UNL1       -0.0103
     12 C         -17.3160   -9.3304  -29.2797 C.ar    1  UNL1       -0.0554
     13 C         -16.9350  -10.0605  -28.1366 C.ar    1  UNL1       -0.0614
     14 C         -17.7780  -10.1025  -27.0107 C.ar    1  UNL1       -0.0617
     15 C         -18.9810   -9.3751  -27.0117 C.ar    1  UNL1       -0.0614
     16 C         -19.3458   -8.6207  -28.1424 C.ar    1  UNL1       -0.0554
     17 C         -21.3211   -4.8597  -27.2606 C.2     1  UNL1        0.2340
     18 O         -21.6174   -6.0212  -26.9692 O.2     1  UNL1       -0.2738
     19 N         -20.7700   -4.0008  -26.3860 N.am    1  UNL1       -0.3037
     20 C         -20.3077   -4.3839  -25.0485 C.3     1  UNL1        0.0888
     21 C         -18.7837   -4.1534  -24.9545 C.3     1  UNL1       -0.0160
     22 C         -17.9981   -5.3026  -25.6069 C.3     1  UNL1        0.0390
     23 C         -18.2628   -6.6656  -24.9513 C.3     1  UNL1       -0.0262
     24 C         -16.9117   -7.3804  -24.9104 C.3     1  UNL1        0.0123
     25 N         -15.9545   -6.3101  -25.0326 N.am    1  UNL1       -0.3151
     26 C         -16.4945   -5.1703  -25.4453 C.2     1  UNL1        0.2162
     27 O         -15.8715   -4.1477  -25.6968 O.2     1  UNL1       -0.2755
     28 C         -21.0860   -3.6774  -23.9328 C.2     1  UNL1        0.2079
     29 O         -20.5531   -2.9485  -23.1022 O.2     1  UNL1       -0.2879
     30 C         -22.5327   -3.9768  -23.8183 C.ar    1  UNL1        0.1465
     31 N         -23.1462   -4.9602  -24.4795 N.ar    1  UNL1       -0.2360
     32 C         -24.4558   -5.0767  -24.0557 C.ar    1  UNL1        0.0790
     33 C         -25.3881   -6.0425  -24.4904 C.ar    1  UNL1       -0.0352
     34 C         -26.6916   -6.0723  -23.9681 C.ar    1  UNL1       -0.0597
     35 C         -27.0748   -5.1398  -22.9912 C.ar    1  UNL1       -0.0606
     36 C         -26.1665   -4.1633  -22.5388 C.ar    1  UNL1       -0.0459
     37 C         -24.8686   -4.1327  -23.0719 C.ar    1  UNL1        0.0396
     38 S         -23.5326   -3.0533  -22.6894 S.2     1  UNL1       -0.0643
     39 H         -25.8384   -1.3078  -31.5650 H       1  UNL1        0.0230
     40 H         -24.1361   -1.3945  -32.0111 H       1  UNL1        0.0230
     41 H         -25.1813   -2.7932  -32.2633 H       1  UNL1        0.0230
     42 H         -25.4238   -3.0206  -29.7660 H       1  UNL1        0.0263
     43 H         -24.4468   -1.5961  -29.5513 H       1  UNL1        0.0263
     44 H         -22.4964   -2.6725  -30.5363 H       1  UNL1        0.0266
     45 H         -23.4157   -4.1101  -30.9229 H       1  UNL1        0.0266
     46 H         -23.7229   -4.6681  -28.5780 H       1  UNL1        0.0288
     47 H         -23.1855   -3.0883  -28.0683 H       1  UNL1        0.0288
     48 H         -20.8854   -3.5248  -28.9034 H       1  UNL1        0.0595
     49 H         -22.0835   -6.0098  -29.9459 H       1  UNL1        0.1528
     50 H         -18.1395   -7.3591  -30.9952 H       1  UNL1        0.0749
     51 H         -19.1841   -8.7100  -31.3250 H       1  UNL1        0.0749
     52 H         -16.6726   -9.3260  -30.1478 H       1  UNL1        0.0621
     53 H         -15.9962  -10.5950  -28.1282 H       1  UNL1        0.0618
     54 H         -17.4891  -10.6723  -26.1397 H       1  UNL1        0.0618
     55 H         -19.6243   -9.3968  -26.1442 H       1  UNL1        0.0618
     56 H         -20.2757   -8.0780  -28.1260 H       1  UNL1        0.0621
     57 H         -20.5754   -3.0587  -26.6959 H       1  UNL1        0.1495
     58 H         -20.4975   -5.4426  -24.8774 H       1  UNL1        0.0582
     59 H         -18.4645   -4.0831  -23.9140 H       1  UNL1        0.0295
     60 H         -18.5203   -3.1997  -25.4141 H       1  UNL1        0.0295
     61 H         -18.2101   -5.3550  -26.6758 H       1  UNL1        0.0395
     62 H         -19.0252   -7.2303  -25.4813 H       1  UNL1        0.0288
     63 H         -18.6236   -6.5322  -23.9333 H       1  UNL1        0.0288
     64 H         -16.7732   -8.0326  -25.7689 H       1  UNL1        0.0462
     65 H         -16.7697   -7.9628  -24.0003 H       1  UNL1        0.0462
     66 H         -14.9596   -6.4550  -24.9136 H       1  UNL1        0.1487
     67 H         -25.0927   -6.7697  -25.2317 H       1  UNL1        0.0639
     68 H         -27.3971   -6.8131  -24.3144 H       1  UNL1        0.0618
     69 H         -28.0766   -5.1875  -22.6044 H       1  UNL1        0.0618
     70 H         -26.4617   -3.4423  -21.7913 H       1  UNL1        0.0629
@<TRIPOS>BOND
     1     1     2    1
     2     1    39    1
     3     1    40    1
     4     1    41    1
     5     2     3    1
     6     2    42    1
     7     2    43    1
     8     3     4    1
     9     3    44    1
    10     3    45    1
    11     4     5    1
    12     4    46    1
    13     4    47    1
    14     5     6    1
    15     5    17    1
    16     5    48    1
    17     6     7   am
    18     6    49    1
    19     7     8    2
    20     7     9    1
    21     9    10    1
    22    10    11    1
    23    10    50    1
    24    10    51    1
    25    11    16   ar
    26    11    12   ar
    27    12    13   ar
    28    12    52    1
    29    13    14   ar
    30    13    53    1
    31    14    15   ar
    32    14    54    1
    33    15    16   ar
    34    15    55    1
    35    16    56    1
    36    17    18    2
    37    17    19   am
    38    19    20    1
    39    19    57    1
    40    20    21    1
    41    20    28    1
    42    20    58    1
    43    21    22    1
    44    21    59    1
    45    21    60    1
    46    22    26    1
    47    22    23    1
    48    22    61    1
    49    23    24    1
    50    23    62    1
    51    23    63    1
    52    24    25    1
    53    24    64    1
    54    24    65    1
    55    25    26   am
    56    25    66    1
    57    26    27    2
    58    28    29    2
    59    28    30    1
    60    30    38   ar
    61    30    31   ar
    62    31    32   ar
    63    32    37   ar
    64    32    33   ar
    65    33    34   ar
    66    33    67    1
    67    34    35   ar
    68    34    68    1
    69    35    36   ar
    70    35    69    1
    71    36    37   ar
    72    36    70    1
    73    37    38   ar
