
                    3D
 Schrodinger Suite 2019-4.
 78 81  0  0  1  0            999 V2000
  -18.0660  -10.0106  -26.7449 C   0  0  0  0  0  0
  -17.4253   -9.1108  -27.8463 C   0  0  0  0  0  0
  -16.6354   -8.0408  -27.1179 C   0  0  0  0  0  0
  -18.3854   -8.4758  -28.8927 C   0  0  0  0  0  0
  -19.6844   -7.8141  -28.3559 C   0  0  2  0  0  0
  -20.6895   -7.8282  -29.4192 N   0  0  0  0  0  0
  -22.0115   -7.7115  -29.2152 C   0  0  0  0  0  0
  -22.5147   -7.7532  -28.0900 O   0  0  0  0  0  0
  -22.8817   -7.4911  -30.4658 C   0  0  0  0  0  0
  -24.0324   -6.6863  -30.1760 O   0  0  0  0  0  0
  -23.8326   -5.3626  -29.8477 C   0  0  0  0  0  0
  -24.3522   -4.8952  -28.6439 C   0  0  0  0  0  0
  -24.2037   -3.5573  -28.2894 C   0  0  0  0  0  0
  -23.5431   -2.6806  -29.1470 C   0  0  0  0  0  0
  -23.0173   -3.1155  -30.3769 C   0  0  0  0  0  0
  -22.3562   -2.2170  -31.2614 N   0  0  0  0  0  0
  -22.2714   -0.7896  -30.9422 C   0  0  0  0  0  0
  -22.1506   -2.5837  -32.6630 C   0  0  0  0  0  0
  -23.1729   -4.4749  -30.7055 C   0  0  0  0  0  0
  -19.4973   -6.3458  -27.9387 C   0  0  0  0  0  0
  -18.7528   -5.6247  -28.6007 O   0  0  0  0  0  0
  -20.2407   -5.9098  -26.9060 N   0  0  0  0  0  0
  -20.3103   -4.5145  -26.4338 C   0  0  1  0  0  0
  -21.5928   -4.2300  -25.6093 C   0  0  0  0  0  0
  -21.7465   -5.0140  -24.2673 C   0  0  2  0  0  0
  -23.1008   -5.7004  -24.0973 C   0  0  0  0  0  0
  -23.9247   -4.7243  -23.2813 C   0  0  0  0  0  0
  -22.9057   -3.9890  -22.5497 N   0  0  0  0  0  0
  -21.6729   -4.0407  -23.0797 C   0  0  0  0  0  0
  -20.6744   -3.4537  -22.6792 O   0  0  0  0  0  0
  -19.0171   -4.0432  -25.7472 C   0  0  0  0  0  0
  -18.7528   -2.8418  -25.7773 O   0  0  0  0  0  0
  -18.0557   -4.9803  -25.1525 C   0  0  0  0  0  0
  -18.3189   -6.1087  -24.5431 N   0  0  0  0  0  0
  -17.1848   -6.8216  -24.2978 C   0  0  0  0  0  0
  -17.1520   -8.1558  -23.8607 C   0  0  0  0  0  0
  -15.9278   -8.8398  -23.8788 C   0  0  0  0  0  0
  -14.7548   -8.2050  -24.2790 C   0  0  0  0  0  0
  -14.7530   -6.8695  -24.6796 C   0  0  0  0  0  0
  -15.9790   -6.1906  -24.7035 C   0  0  0  0  0  0
  -16.3538   -4.6020  -25.3309 S   0  0  0  0  0  0
  -18.7529  -10.7603  -27.0790 H   0  0  0  0  0  0
  -17.2868  -10.5502  -26.2031 H   0  0  0  0  0  0
  -18.6179   -9.4221  -26.0095 H   0  0  0  0  0  0
  -16.6964   -9.7114  -28.3917 H   0  0  0  0  0  0
  -17.0497   -7.0390  -27.1482 H   0  0  0  0  0  0
  -16.7320   -8.3277  -26.1214 H   0  0  0  0  0  0
  -15.5534   -8.0432  -27.1078 H   0  0  0  0  0  0
  -18.6652   -9.2399  -29.6115 H   0  0  0  0  0  0
  -17.8207   -7.7726  -29.5075 H   0  0  0  0  0  0
  -20.0622   -8.3907  -27.5110 H   0  0  0  0  0  0
  -20.3258   -7.7840  -30.3602 H   0  0  0  0  0  0
  -23.2446   -8.4624  -30.8034 H   0  0  0  0  0  0
  -22.3003   -7.0670  -31.2860 H   0  0  0  0  0  0
  -24.8645   -5.5761  -27.9814 H   0  0  0  0  0  0
  -24.6071   -3.1976  -27.3534 H   0  0  0  0  0  0
  -23.4639   -1.6483  -28.8355 H   0  0  0  0  0  0
  -21.5538   -0.2792  -31.5843 H   0  0  0  0  0  0
  -23.2456   -0.3168  -31.0624 H   0  0  0  0  0  0
  -21.9533   -0.6206  -29.9135 H   0  0  0  0  0  0
  -21.6515   -1.7921  -33.2277 H   0  0  0  0  0  0
  -21.5506   -3.4881  -32.7547 H   0  0  0  0  0  0
  -23.1116   -2.7794  -33.1380 H   0  0  0  0  0  0
  -22.8011   -4.8590  -31.6416 H   0  0  0  0  0  0
  -20.8723   -6.5597  -26.4571 H   0  0  0  0  0  0
  -20.4170   -3.9053  -27.3367 H   0  0  0  0  0  0
  -22.4369   -4.4691  -26.2580 H   0  0  0  0  0  0
  -21.6848   -3.1507  -25.4691 H   0  0  0  0  0  0
  -20.9691   -5.7692  -24.1504 H   0  0  0  0  0  0
  -22.9693   -6.6221  -23.5245 H   0  0  0  0  0  0
  -23.5917   -5.9928  -25.0287 H   0  0  0  0  0  0
  -24.6027   -5.2428  -22.6006 H   0  0  0  0  0  0
  -24.5089   -4.0431  -23.9051 H   0  0  0  0  0  0
  -23.1457   -3.3636  -21.7946 H   0  0  0  0  0  0
  -18.0600   -8.6636  -23.5805 H   0  0  0  0  0  0
  -15.8892   -9.8742  -23.5763 H   0  0  0  0  0  0
  -13.8280   -8.7589  -24.2926 H   0  0  0  0  0  0
  -13.8410   -6.4074  -25.0256 H   0  0  0  0  0  0
  1  2  1  0  0  0
  1 42  1  0  0  0
  1 43  1  0  0  0
  1 44  1  0  0  0
  2  3  1  0  0  0
  2  4  1  0  0  0
  2 45  1  0  0  0
  3 46  1  0  0  0
  3 47  1  0  0  0
  3 48  1  0  0  0
  4  5  1  0  0  0
  4 49  1  0  0  0
  4 50  1  0  0  0
  5  6  1  0  0  0
  5 20  1  0  0  0
  5 51  1  0  0  0
  6  7  1  0  0  0
  6 52  1  0  0  0
  7  8  2  0  0  0
  7  9  1  0  0  0
  9 10  1  0  0  0
  9 53  1  0  0  0
  9 54  1  0  0  0
 10 11  1  0  0  0
 11 19  1  0  0  0
 11 12  2  0  0  0
 12 13  1  0  0  0
 12 55  1  0  0  0
 13 14  2  0  0  0
 13 56  1  0  0  0
 14 15  1  0  0  0
 14 57  1  0  0  0
 15 16  1  0  0  0
 15 19  2  0  0  0
 16 17  1  0  0  0
 16 18  1  0  0  0
 17 58  1  0  0  0
 17 59  1  0  0  0
 17 60  1  0  0  0
 18 61  1  0  0  0
 18 62  1  0  0  0
 18 63  1  0  0  0
 19 64  1  0  0  0
 20 21  2  0  0  0
 20 22  1  0  0  0
 22 23  1  0  0  0
 22 65  1  0  0  0
 23 24  1  0  0  0
 23 31  1  0  0  0
 23 66  1  0  0  0
 24 25  1  0  0  0
 24 67  1  0  0  0
 24 68  1  0  0  0
 25 29  1  0  0  0
 25 26  1  0  0  0
 25 69  1  0  0  0
 26 27  1  0  0  0
 26 70  1  0  0  0
 26 71  1  0  0  0
 27 28  1  0  0  0
 27 72  1  0  0  0
 27 73  1  0  0  0
 28 29  1  0  0  0
 28 74  1  0  0  0
 29 30  2  0  0  0
 31 32  2  0  0  0
 31 33  1  0  0  0
 33 41  1  0  0  0
 33 34  2  0  0  0
 34 35  1  0  0  0
 35 40  2  0  0  0
 35 36  1  0  0  0
 36 37  2  0  0  0
 36 75  1  0  0  0
 37 38  1  0  0  0
 37 76  1  0  0  0
 38 39  2  0  0  0
 38 77  1  0  0  0
 39 40  1  0  0  0
 39 78  1  0  0  0
 40 41  1  0  0  0
M  END
$$$$
