@<TRIPOS>MOLECULE
*****
 78 81 0 0 0
SMALL
GASTEIGER
****
Schrodinger Suite 2019-4.
@<TRIPOS>ATOM
      1 C         -18.0660  -10.0106  -26.7449 C.3     1  UNL1       -0.0626
      2 C         -17.4253   -9.1108  -27.8463 C.3     1  UNL1       -0.0446
      3 C         -16.6354   -8.0408  -27.1179 C.3     1  UNL1       -0.0626
      4 C         -18.3854   -8.4758  -28.8927 C.3     1  UNL1       -0.0236
      5 C         -19.6844   -7.8141  -28.3559 C.3     1  UNL1        0.0997
      6 N         -20.6895   -7.8282  -29.4192 N.am    1  UNL1       -0.3012
      7 C         -22.0115   -7.7115  -29.2152 C.2     1  UNL1        0.2513
      8 O         -22.5147   -7.7532  -28.0900 O.2     1  UNL1       -0.2721
      9 C         -22.8817   -7.4911  -30.4658 C.3     1  UNL1        0.1652
     10 O         -24.0324   -6.6863  -30.1760 O.3     1  UNL1       -0.4827
     11 C         -23.8326   -5.3626  -29.8477 C.ar    1  UNL1        0.1230
     12 C         -24.3522   -4.8952  -28.6439 C.ar    1  UNL1       -0.0198
     13 C         -24.2037   -3.5573  -28.2894 C.ar    1  UNL1       -0.0566
     14 C         -23.5431   -2.6806  -29.1470 C.ar    1  UNL1       -0.0404
     15 C         -23.0173   -3.1155  -30.3769 C.ar    1  UNL1        0.0327
     16 N         -22.3562   -2.2170  -31.2614 N.pl3   1  UNL1       -0.3359
     17 C         -22.2714   -0.7896  -30.9422 C.3     1  UNL1        0.0004
     18 C         -22.1506   -2.5837  -32.6630 C.3     1  UNL1        0.0004
     19 C         -23.1729   -4.4749  -30.7055 C.ar    1  UNL1        0.0011
     20 C         -19.4973   -6.3458  -27.9387 C.2     1  UNL1        0.2339
     21 O         -18.7528   -5.6247  -28.6007 O.2     1  UNL1       -0.2738
     22 N         -20.2407   -5.9098  -26.9060 N.am    1  UNL1       -0.3037
     23 C         -20.3103   -4.5145  -26.4338 C.3     1  UNL1        0.0888
     24 C         -21.5928   -4.2300  -25.6093 C.3     1  UNL1       -0.0160
     25 C         -21.7465   -5.0140  -24.2673 C.3     1  UNL1        0.0390
     26 C         -23.1008   -5.7004  -24.0973 C.3     1  UNL1       -0.0262
     27 C         -23.9247   -4.7243  -23.2813 C.3     1  UNL1        0.0123
     28 N         -22.9057   -3.9890  -22.5497 N.am    1  UNL1       -0.3151
     29 C         -21.6729   -4.0407  -23.0797 C.2     1  UNL1        0.2162
     30 O         -20.6744   -3.4537  -22.6792 O.2     1  UNL1       -0.2755
     31 C         -19.0171   -4.0432  -25.7472 C.2     1  UNL1        0.2079
     32 O         -18.7528   -2.8418  -25.7773 O.2     1  UNL1       -0.2879
     33 C         -18.0557   -4.9803  -25.1525 C.ar    1  UNL1        0.1465
     34 N         -18.3189   -6.1087  -24.5431 N.ar    1  UNL1       -0.2360
     35 C         -17.1848   -6.8216  -24.2978 C.ar    1  UNL1        0.0790
     36 C         -17.1520   -8.1558  -23.8607 C.ar    1  UNL1       -0.0352
     37 C         -15.9278   -8.8398  -23.8788 C.ar    1  UNL1       -0.0597
     38 C         -14.7548   -8.2050  -24.2790 C.ar    1  UNL1       -0.0606
     39 C         -14.7530   -6.8695  -24.6796 C.ar    1  UNL1       -0.0459
     40 C         -15.9790   -6.1906  -24.7035 C.ar    1  UNL1        0.0396
     41 S         -16.3538   -4.6020  -25.3309 S.2     1  UNL1       -0.0643
     42 H         -18.7529  -10.7603  -27.0790 H       1  UNL1        0.0232
     43 H         -17.2868  -10.5502  -26.2031 H       1  UNL1        0.0232
     44 H         -18.6179   -9.4221  -26.0095 H       1  UNL1        0.0232
     45 H         -16.6964   -9.7114  -28.3917 H       1  UNL1        0.0296
     46 H         -17.0497   -7.0390  -27.1482 H       1  UNL1        0.0232
     47 H         -16.7320   -8.3277  -26.1214 H       1  UNL1        0.0232
     48 H         -15.5534   -8.0432  -27.1078 H       1  UNL1        0.0232
     49 H         -18.6652   -9.2399  -29.6115 H       1  UNL1        0.0290
     50 H         -17.8207   -7.7726  -29.5075 H       1  UNL1        0.0290
     51 H         -20.0622   -8.3907  -27.5110 H       1  UNL1        0.0594
     52 H         -20.3258   -7.7840  -30.3602 H       1  UNL1        0.1496
     53 H         -23.2446   -8.4624  -30.8034 H       1  UNL1        0.0795
     54 H         -22.3003   -7.0670  -31.2860 H       1  UNL1        0.0795
     55 H         -24.8645   -5.5761  -27.9814 H       1  UNL1        0.0654
     56 H         -24.6071   -3.1976  -27.3534 H       1  UNL1        0.0619
     57 H         -23.4639   -1.6483  -28.8355 H       1  UNL1        0.0636
     58 H         -21.5538   -0.2792  -31.5843 H       1  UNL1        0.0428
     59 H         -23.2456   -0.3168  -31.0624 H       1  UNL1        0.0428
     60 H         -21.9533   -0.6206  -29.9135 H       1  UNL1        0.0428
     61 H         -21.6515   -1.7921  -33.2277 H       1  UNL1        0.0428
     62 H         -21.5506   -3.4881  -32.7547 H       1  UNL1        0.0428
     63 H         -23.1116   -2.7794  -33.1380 H       1  UNL1        0.0428
     64 H         -22.8011   -4.8590  -31.6416 H       1  UNL1        0.0673
     65 H         -20.8723   -6.5597  -26.4571 H       1  UNL1        0.1495
     66 H         -20.4170   -3.9053  -27.3367 H       1  UNL1        0.0582
     67 H         -22.4369   -4.4691  -26.2580 H       1  UNL1        0.0295
     68 H         -21.6848   -3.1507  -25.4691 H       1  UNL1        0.0295
     69 H         -20.9691   -5.7692  -24.1504 H       1  UNL1        0.0395
     70 H         -22.9693   -6.6221  -23.5245 H       1  UNL1        0.0288
     71 H         -23.5917   -5.9928  -25.0287 H       1  UNL1        0.0288
     72 H         -24.6027   -5.2428  -22.6006 H       1  UNL1        0.0462
     73 H         -24.5089   -4.0431  -23.9051 H       1  UNL1        0.0462
     74 H         -23.1457   -3.3636  -21.7946 H       1  UNL1        0.1487
     75 H         -18.0600   -8.6636  -23.5805 H       1  UNL1        0.0639
     76 H         -15.8892   -9.8742  -23.5763 H       1  UNL1        0.0618
     77 H         -13.8280   -8.7589  -24.2926 H       1  UNL1        0.0618
     78 H         -13.8410   -6.4074  -25.0256 H       1  UNL1        0.0629
@<TRIPOS>BOND
     1     1     2    1
     2     1    42    1
     3     1    43    1
     4     1    44    1
     5     2     3    1
     6     2     4    1
     7     2    45    1
     8     3    46    1
     9     3    47    1
    10     3    48    1
    11     4     5    1
    12     4    49    1
    13     4    50    1
    14     5     6    1
    15     5    20    1
    16     5    51    1
    17     6     7   am
    18     6    52    1
    19     7     8    2
    20     7     9    1
    21     9    10    1
    22     9    53    1
    23     9    54    1
    24    10    11    1
    25    11    19   ar
    26    11    12   ar
    27    12    13   ar
    28    12    55    1
    29    13    14   ar
    30    13    56    1
    31    14    15   ar
    32    14    57    1
    33    15    16    1
    34    15    19   ar
    35    16    17    1
    36    16    18    1
    37    17    58    1
    38    17    59    1
    39    17    60    1
    40    18    61    1
    41    18    62    1
    42    18    63    1
    43    19    64    1
    44    20    21    2
    45    20    22   am
    46    22    23    1
    47    22    65    1
    48    23    24    1
    49    23    31    1
    50    23    66    1
    51    24    25    1
    52    24    67    1
    53    24    68    1
    54    25    29    1
    55    25    26    1
    56    25    69    1
    57    26    27    1
    58    26    70    1
    59    26    71    1
    60    27    28    1
    61    27    72    1
    62    27    73    1
    63    28    29   am
    64    28    74    1
    65    29    30    2
    66    31    32    2
    67    31    33    1
    68    33    41   ar
    69    33    34   ar
    70    34    35   ar
    71    35    40   ar
    72    35    36   ar
    73    36    37   ar
    74    36    75    1
    75    37    38   ar
    76    37    76    1
    77    38    39   ar
    78    38    77    1
    79    39    40   ar
    80    39    78    1
    81    40    41   ar
