@<TRIPOS>MOLECULE
*****
 63 65 0 0 0
SMALL
GASTEIGER
****
Schrodinger Suite 2019-4.
@<TRIPOS>ATOM
      1 C         -18.3764   -9.4090  -29.3441 C.3     1  UNL1       -0.0442
      2 C         -19.5934   -9.2850  -28.4039 C.3     1  UNL1        0.0262
      3 C         -20.8770   -9.6134  -29.2013 C.3     1  UNL1       -0.0442
      4 C         -19.4129  -10.2842  -27.2379 C.3     1  UNL1       -0.0442
      5 N         -19.6152   -7.9027  -27.9197 N.am    1  UNL1       -0.3087
      6 C         -20.4695   -7.3387  -27.0420 C.2     1  UNL1        0.2389
      7 O         -21.4187   -7.9244  -26.5311 O.2     1  UNL1       -0.2734
      8 C         -20.1454   -5.8670  -26.6648 C.3     1  UNL1        0.1337
      9 C         -18.7880   -5.6788  -25.9871 C.ar    1  UNL1        0.0002
     10 C         -18.0072   -6.7508  -25.5054 C.ar    1  UNL1       -0.0534
     11 C         -16.7065   -6.5356  -25.0597 C.ar    1  UNL1       -0.0433
     12 C         -16.2199   -5.2328  -25.0623 C.ar    1  UNL1        0.0276
     13 N         -16.9617   -4.1760  -25.4691 N.ar    1  UNL1       -0.2629
     14 C         -18.2169   -4.4051  -25.9267 C.ar    1  UNL1        0.0330
     15 N         -21.3128   -5.0244  -26.2054 N.am    1  UNL1       -0.2509
     16 C         -21.5154   -4.6076  -24.9025 C.2     1  UNL1        0.2584
     17 O         -20.6195   -4.6023  -24.0554 O.2     1  UNL1       -0.2690
     18 C         -22.8146   -4.0783  -24.4826 C.ar    1  UNL1        0.0744
     19 C         -24.1044   -4.4682  -24.8649 C.ar    1  UNL1       -0.0425
     20 C         -25.1207   -3.8233  -24.1532 C.ar    1  UNL1       -0.0540
     21 C         -24.6355   -2.9737  -23.1766 C.ar    1  UNL1       -0.0236
     22 S         -22.9083   -2.9804  -23.1192 S.2     1  UNL1       -0.0921
     23 C         -22.2137   -4.6542  -27.2365 C.ar    1  UNL1        0.0378
     24 C         -22.1492   -3.3498  -27.7175 C.ar    1  UNL1       -0.0400
     25 C         -22.9059   -2.9713  -28.8203 C.ar    1  UNL1       -0.0563
     26 C         -23.7432   -3.8914  -29.4644 C.ar    1  UNL1       -0.0419
     27 C         -24.5134   -3.4537  -30.7375 C.3     1  UNL1       -0.0127
     28 C         -23.5078   -3.0168  -31.8294 C.3     1  UNL1       -0.0560
     29 C         -25.4497   -2.2736  -30.4033 C.3     1  UNL1       -0.0560
     30 C         -25.3981   -4.5772  -31.3357 C.3     1  UNL1       -0.0560
     31 C         -23.8346   -5.1909  -28.9443 C.ar    1  UNL1       -0.0563
     32 C         -23.0822   -5.5707  -27.8399 C.ar    1  UNL1       -0.0400
     33 H         -17.4437   -9.1817  -28.8256 H       1  UNL1        0.0250
     34 H         -18.2839  -10.4165  -29.7498 H       1  UNL1        0.0250
     35 H         -18.4499   -8.7234  -30.1913 H       1  UNL1        0.0250
     36 H         -21.7696   -9.5558  -28.5786 H       1  UNL1        0.0250
     37 H         -21.0181   -8.9178  -30.0302 H       1  UNL1        0.0250
     38 H         -20.8415  -10.6201  -29.6203 H       1  UNL1        0.0250
     39 H         -20.2601  -10.2742  -26.5525 H       1  UNL1        0.0250
     40 H         -19.3056  -11.3079  -27.6000 H       1  UNL1        0.0250
     41 H         -18.5252  -10.0512  -26.6492 H       1  UNL1        0.0250
     42 H         -18.8603   -7.3285  -28.2602 H       1  UNL1        0.1493
     43 H         -19.9824   -5.4696  -27.6720 H       1  UNL1        0.0652
     44 H         -18.3754   -7.7669  -25.4960 H       1  UNL1        0.0622
     45 H         -16.0884   -7.3554  -24.7229 H       1  UNL1        0.0633
     46 H         -15.2158   -5.0267  -24.7217 H       1  UNL1        0.0829
     47 H         -18.7596   -3.5408  -26.2787 H       1  UNL1        0.0833
     48 H         -24.3228   -5.2094  -25.6175 H       1  UNL1        0.0630
     49 H         -26.1752   -3.9914  -24.3253 H       1  UNL1        0.0623
     50 H         -25.2019   -2.3703  -22.4781 H       1  UNL1        0.0693
     51 H         -21.4838   -2.6280  -27.2652 H       1  UNL1        0.0636
     52 H         -22.8144   -1.9568  -29.1831 H       1  UNL1        0.0621
     53 H         -24.0268   -2.6612  -32.7179 H       1  UNL1        0.0238
     54 H         -22.8615   -2.2025  -31.4991 H       1  UNL1        0.0238
     55 H         -22.8646   -3.8436  -32.1339 H       1  UNL1        0.0238
     56 H         -26.0092   -1.9411  -31.2784 H       1  UNL1        0.0238
     57 H         -26.1776   -2.5762  -29.6459 H       1  UNL1        0.0238
     58 H         -24.9059   -1.4066  -30.0265 H       1  UNL1        0.0238
     59 H         -25.8509   -4.2770  -32.2827 H       1  UNL1        0.0238
     60 H         -24.8248   -5.4834  -31.5238 H       1  UNL1        0.0238
     61 H         -26.2134   -4.8464  -30.6658 H       1  UNL1        0.0238
     62 H         -24.4760   -5.9389  -29.3852 H       1  UNL1        0.0621
     63 H         -23.1817   -6.5792  -27.4766 H       1  UNL1        0.0636
@<TRIPOS>BOND
     1     1     2    1
     2     1    33    1
     3     1    34    1
     4     1    35    1
     5     2     3    1
     6     2     4    1
     7     2     5    1
     8     3    36    1
     9     3    37    1
    10     3    38    1
    11     4    39    1
    12     4    40    1
    13     4    41    1
    14     5     6   am
    15     5    42    1
    16     6     7    2
    17     6     8    1
    18     8     9    1
    19     8    15    1
    20     8    43    1
    21     9    14   ar
    22     9    10   ar
    23    10    11   ar
    24    10    44    1
    25    11    12   ar
    26    11    45    1
    27    12    13   ar
    28    12    46    1
    29    13    14   ar
    30    14    47    1
    31    15    16   am
    32    15    23    1
    33    16    17    2
    34    16    18    1
    35    18    22   ar
    36    18    19   ar
    37    19    20   ar
    38    19    48    1
    39    20    21   ar
    40    20    49    1
    41    21    22   ar
    42    21    50    1
    43    23    32   ar
    44    23    24   ar
    45    24    25   ar
    46    24    51    1
    47    25    26   ar
    48    25    52    1
    49    26    27    1
    50    26    31   ar
    51    27    28    1
    52    27    29    1
    53    27    30    1
    54    28    53    1
    55    28    54    1
    56    28    55    1
    57    29    56    1
    58    29    57    1
    59    29    58    1
    60    30    59    1
    61    30    60    1
    62    30    61    1
    63    31    32   ar
    64    31    62    1
    65    32    63    1
