@<TRIPOS>MOLECULE
*****
 70 73 0 0 0
SMALL
GASTEIGER
****
Schrodinger Suite 2019-4.
@<TRIPOS>ATOM
      1 C         -24.1739   -2.0349  -30.4683 C.3     1  UNL1       -0.0650
      2 C         -23.2229   -3.2335  -30.3894 C.3     1  UNL1       -0.0512
      3 C         -22.9983   -3.7496  -28.9489 C.3     1  UNL1       -0.0170
      4 C         -24.1157   -4.7328  -28.5422 C.3     1  UNL1       -0.0603
      5 C         -21.5587   -4.3015  -28.7683 C.3     1  UNL1        0.1050
      6 N         -21.3015   -5.3927  -29.7119 N.am    1  UNL1       -0.2696
      7 C         -20.0355   -5.9088  -29.9271 C.2     1  UNL1        0.4012
      8 O         -18.9805   -5.4041  -29.5502 O.2     1  UNL1       -0.2265
      9 O         -20.1394   -7.1132  -30.5021 O.3     1  UNL1       -0.4456
     10 C         -18.9853   -7.9427  -30.6085 C.3     1  UNL1        0.1191
     11 C         -18.5479   -8.6205  -29.3112 C.ar    1  UNL1       -0.0103
     12 C         -17.3273   -9.3265  -29.2874 C.ar    1  UNL1       -0.0554
     13 C         -16.9448  -10.0511  -28.1412 C.ar    1  UNL1       -0.0614
     14 C         -17.7875  -10.0888  -27.0147 C.ar    1  UNL1       -0.0617
     15 C         -18.9906   -9.3611  -27.0186 C.ar    1  UNL1       -0.0614
     16 C         -19.3571   -8.6131  -28.1530 C.ar    1  UNL1       -0.0554
     17 C         -21.2963   -4.8078  -27.3356 C.2     1  UNL1        0.2343
     18 O         -21.5649   -5.9765  -27.0445 O.2     1  UNL1       -0.2738
     19 N         -20.7524   -3.9472  -26.4575 N.am    1  UNL1       -0.3037
     20 C         -20.2957   -4.3370  -25.1171 C.3     1  UNL1        0.0888
     21 C         -18.7688   -4.1273  -25.0136 C.3     1  UNL1       -0.0160
     22 C         -17.9901   -5.2949  -25.6385 C.3     1  UNL1        0.0390
     23 C         -18.2756   -6.6444  -24.9635 C.3     1  UNL1       -0.0262
     24 C         -16.9321   -7.3719  -24.8988 C.3     1  UNL1        0.0123
     25 N         -15.9629   -6.3125  -25.0247 N.am    1  UNL1       -0.3151
     26 C         -16.4879   -5.1727  -25.4567 C.2     1  UNL1        0.2162
     27 O         -15.8542   -4.1560  -25.7069 O.2     1  UNL1       -0.2755
     28 C         -21.0686   -3.6264  -24.0012 C.2     1  UNL1        0.2079
     29 O         -20.5239   -2.9506  -23.1324 O.2     1  UNL1       -0.2879
     30 C         -22.5319   -3.8501  -23.9385 C.ar    1  UNL1        0.1465
     31 N         -23.1868   -4.7650  -24.6576 N.ar    1  UNL1       -0.2360
     32 C         -24.5115   -4.8170  -24.2707 C.ar    1  UNL1        0.0790
     33 C         -25.4890   -5.7137  -24.7542 C.ar    1  UNL1       -0.0352
     34 C         -26.7987   -5.6932  -24.2462 C.ar    1  UNL1       -0.0597
     35 C         -27.1427   -4.7735  -23.2427 C.ar    1  UNL1       -0.0606
     36 C         -26.1925   -3.8612  -22.7493 C.ar    1  UNL1       -0.0459
     37 C         -24.8887   -3.8881  -23.2599 C.ar    1  UNL1        0.0396
     38 S         -23.5023   -2.9178  -22.7944 S.2     1  UNL1       -0.0643
     39 H         -24.4494   -1.8197  -31.5012 H       1  UNL1        0.0230
     40 H         -25.0854   -2.2011  -29.8976 H       1  UNL1        0.0230
     41 H         -23.6923   -1.1442  -30.0697 H       1  UNL1        0.0230
     42 H         -22.2734   -2.9246  -30.8292 H       1  UNL1        0.0266
     43 H         -23.5933   -4.0432  -31.0202 H       1  UNL1        0.0266
     44 H         -23.0732   -2.8879  -28.2820 H       1  UNL1        0.0321
     45 H         -24.0773   -4.9873  -27.4840 H       1  UNL1        0.0233
     46 H         -25.0917   -4.2885  -28.7199 H       1  UNL1        0.0233
     47 H         -24.0664   -5.6593  -29.1150 H       1  UNL1        0.0233
     48 H         -20.8521   -3.5001  -28.9839 H       1  UNL1        0.0598
     49 H         -22.0771   -5.9408  -30.0537 H       1  UNL1        0.1528
     50 H         -18.1516   -7.3821  -31.0257 H       1  UNL1        0.0749
     51 H         -19.2118   -8.7276  -31.3296 H       1  UNL1        0.0749
     52 H         -16.6844   -9.3253  -30.1562 H       1  UNL1        0.0621
     53 H         -16.0056  -10.5848  -28.1306 H       1  UNL1        0.0618
     54 H         -17.4986  -10.6552  -26.1414 H       1  UNL1        0.0618
     55 H         -19.6332   -9.3795  -26.1509 H       1  UNL1        0.0618
     56 H         -20.2875   -8.0716  -28.1399 H       1  UNL1        0.0621
     57 H         -20.5792   -2.9969  -26.7556 H       1  UNL1        0.1495
     58 H         -20.5008   -5.3929  -24.9452 H       1  UNL1        0.0582
     59 H         -18.4551   -4.0461  -23.9721 H       1  UNL1        0.0295
     60 H         -18.4891   -3.1844  -25.4851 H       1  UNL1        0.0295
     61 H         -18.1903   -5.3614  -26.7090 H       1  UNL1        0.0395
     62 H         -19.0391   -7.2095  -25.4917 H       1  UNL1        0.0288
     63 H         -18.6443   -6.4897  -23.9510 H       1  UNL1        0.0288
     64 H         -16.7912   -8.0376  -25.7464 H       1  UNL1        0.0462
     65 H         -16.8061   -7.9431  -23.9795 H       1  UNL1        0.0462
     66 H         -14.9716   -6.4631  -24.8856 H       1  UNL1        0.1487
     67 H         -25.2197   -6.4327  -25.5132 H       1  UNL1        0.0639
     68 H         -27.5357   -6.3884  -24.6197 H       1  UNL1        0.0618
     69 H         -28.1426   -4.7900  -22.8524 H       1  UNL1        0.0618
     70 H         -26.4487   -3.1616  -21.9678 H       1  UNL1        0.0629
@<TRIPOS>BOND
     1     1     2    1
     2     1    39    1
     3     1    40    1
     4     1    41    1
     5     2     3    1
     6     2    42    1
     7     2    43    1
     8     3     4    1
     9     3     5    1
    10     3    44    1
    11     4    45    1
    12     4    46    1
    13     4    47    1
    14     5     6    1
    15     5    17    1
    16     5    48    1
    17     6     7   am
    18     6    49    1
    19     7     8    2
    20     7     9    1
    21     9    10    1
    22    10    11    1
    23    10    50    1
    24    10    51    1
    25    11    16   ar
    26    11    12   ar
    27    12    13   ar
    28    12    52    1
    29    13    14   ar
    30    13    53    1
    31    14    15   ar
    32    14    54    1
    33    15    16   ar
    34    15    55    1
    35    16    56    1
    36    17    18    2
    37    17    19   am
    38    19    20    1
    39    19    57    1
    40    20    21    1
    41    20    28    1
    42    20    58    1
    43    21    22    1
    44    21    59    1
    45    21    60    1
    46    22    26    1
    47    22    23    1
    48    22    61    1
    49    23    24    1
    50    23    62    1
    51    23    63    1
    52    24    25    1
    53    24    64    1
    54    24    65    1
    55    25    26   am
    56    25    66    1
    57    26    27    2
    58    28    29    2
    59    28    30    1
    60    30    38   ar
    61    30    31   ar
    62    31    32   ar
    63    32    37   ar
    64    32    33   ar
    65    33    34   ar
    66    33    67    1
    67    34    35   ar
    68    34    68    1
    69    35    36   ar
    70    35    69    1
    71    36    37   ar
    72    36    70    1
    73    37    38   ar
