
                    3D
 Schrodinger Suite 2019-4.
 70 73  0  0  1  0            999 V2000
  -24.1739   -2.0349  -30.4683 C   0  0  0  0  0  0
  -23.2229   -3.2335  -30.3894 C   0  0  0  0  0  0
  -22.9983   -3.7496  -28.9489 C   0  0  1  0  0  0
  -24.1157   -4.7328  -28.5422 C   0  0  0  0  0  0
  -21.5587   -4.3015  -28.7683 C   0  0  2  0  0  0
  -21.3015   -5.3927  -29.7119 N   0  0  0  0  0  0
  -20.0355   -5.9088  -29.9271 C   0  0  0  0  0  0
  -18.9805   -5.4041  -29.5502 O   0  0  0  0  0  0
  -20.1394   -7.1132  -30.5021 O   0  0  0  0  0  0
  -18.9853   -7.9427  -30.6085 C   0  0  0  0  0  0
  -18.5479   -8.6205  -29.3112 C   0  0  0  0  0  0
  -17.3273   -9.3265  -29.2874 C   0  0  0  0  0  0
  -16.9448  -10.0511  -28.1412 C   0  0  0  0  0  0
  -17.7875  -10.0888  -27.0147 C   0  0  0  0  0  0
  -18.9906   -9.3611  -27.0186 C   0  0  0  0  0  0
  -19.3571   -8.6131  -28.1530 C   0  0  0  0  0  0
  -21.2963   -4.8078  -27.3356 C   0  0  0  0  0  0
  -21.5649   -5.9765  -27.0445 O   0  0  0  0  0  0
  -20.7524   -3.9472  -26.4575 N   0  0  0  0  0  0
  -20.2957   -4.3370  -25.1171 C   0  0  1  0  0  0
  -18.7688   -4.1273  -25.0136 C   0  0  0  0  0  0
  -17.9901   -5.2949  -25.6385 C   0  0  2  0  0  0
  -18.2756   -6.6444  -24.9635 C   0  0  0  0  0  0
  -16.9321   -7.3719  -24.8988 C   0  0  0  0  0  0
  -15.9629   -6.3125  -25.0247 N   0  0  0  0  0  0
  -16.4879   -5.1727  -25.4567 C   0  0  0  0  0  0
  -15.8542   -4.1560  -25.7069 O   0  0  0  0  0  0
  -21.0686   -3.6264  -24.0012 C   0  0  0  0  0  0
  -20.5239   -2.9506  -23.1324 O   0  0  0  0  0  0
  -22.5319   -3.8501  -23.9385 C   0  0  0  0  0  0
  -23.1868   -4.7650  -24.6576 N   0  0  0  0  0  0
  -24.5115   -4.8170  -24.2707 C   0  0  0  0  0  0
  -25.4890   -5.7137  -24.7542 C   0  0  0  0  0  0
  -26.7987   -5.6932  -24.2462 C   0  0  0  0  0  0
  -27.1427   -4.7735  -23.2427 C   0  0  0  0  0  0
  -26.1925   -3.8612  -22.7493 C   0  0  0  0  0  0
  -24.8887   -3.8881  -23.2599 C   0  0  0  0  0  0
  -23.5023   -2.9178  -22.7944 S   0  0  0  0  0  0
  -24.4494   -1.8197  -31.5012 H   0  0  0  0  0  0
  -25.0854   -2.2011  -29.8976 H   0  0  0  0  0  0
  -23.6923   -1.1442  -30.0697 H   0  0  0  0  0  0
  -22.2734   -2.9246  -30.8292 H   0  0  0  0  0  0
  -23.5933   -4.0432  -31.0202 H   0  0  0  0  0  0
  -23.0732   -2.8879  -28.2820 H   0  0  0  0  0  0
  -24.0773   -4.9873  -27.4840 H   0  0  0  0  0  0
  -25.0917   -4.2885  -28.7199 H   0  0  0  0  0  0
  -24.0664   -5.6593  -29.1150 H   0  0  0  0  0  0
  -20.8521   -3.5001  -28.9839 H   0  0  0  0  0  0
  -22.0771   -5.9408  -30.0537 H   0  0  0  0  0  0
  -18.1516   -7.3821  -31.0257 H   0  0  0  0  0  0
  -19.2118   -8.7276  -31.3296 H   0  0  0  0  0  0
  -16.6844   -9.3253  -30.1562 H   0  0  0  0  0  0
  -16.0056  -10.5848  -28.1306 H   0  0  0  0  0  0
  -17.4986  -10.6552  -26.1414 H   0  0  0  0  0  0
  -19.6332   -9.3795  -26.1509 H   0  0  0  0  0  0
  -20.2875   -8.0716  -28.1399 H   0  0  0  0  0  0
  -20.5792   -2.9969  -26.7556 H   0  0  0  0  0  0
  -20.5008   -5.3929  -24.9452 H   0  0  0  0  0  0
  -18.4551   -4.0461  -23.9721 H   0  0  0  0  0  0
  -18.4891   -3.1844  -25.4851 H   0  0  0  0  0  0
  -18.1903   -5.3614  -26.7090 H   0  0  0  0  0  0
  -19.0391   -7.2095  -25.4917 H   0  0  0  0  0  0
  -18.6443   -6.4897  -23.9510 H   0  0  0  0  0  0
  -16.7912   -8.0376  -25.7464 H   0  0  0  0  0  0
  -16.8061   -7.9431  -23.9795 H   0  0  0  0  0  0
  -14.9716   -6.4631  -24.8856 H   0  0  0  0  0  0
  -25.2197   -6.4327  -25.5132 H   0  0  0  0  0  0
  -27.5357   -6.3884  -24.6197 H   0  0  0  0  0  0
  -28.1426   -4.7900  -22.8524 H   0  0  0  0  0  0
  -26.4487   -3.1616  -21.9678 H   0  0  0  0  0  0
  1  2  1  0  0  0
  1 39  1  0  0  0
  1 40  1  0  0  0
  1 41  1  0  0  0
  2  3  1  0  0  0
  2 42  1  0  0  0
  2 43  1  0  0  0
  3  4  1  0  0  0
  3  5  1  0  0  0
  3 44  1  0  0  0
  4 45  1  0  0  0
  4 46  1  0  0  0
  4 47  1  0  0  0
  5  6  1  0  0  0
  5 17  1  0  0  0
  5 48  1  0  0  0
  6  7  1  0  0  0
  6 49  1  0  0  0
  7  8  2  0  0  0
  7  9  1  0  0  0
  9 10  1  0  0  0
 10 11  1  0  0  0
 10 50  1  0  0  0
 10 51  1  0  0  0
 11 16  1  0  0  0
 11 12  2  0  0  0
 12 13  1  0  0  0
 12 52  1  0  0  0
 13 14  2  0  0  0
 13 53  1  0  0  0
 14 15  1  0  0  0
 14 54  1  0  0  0
 15 16  2  0  0  0
 15 55  1  0  0  0
 16 56  1  0  0  0
 17 18  2  0  0  0
 17 19  1  0  0  0
 19 20  1  0  0  0
 19 57  1  0  0  0
 20 21  1  0  0  0
 20 28  1  0  0  0
 20 58  1  0  0  0
 21 22  1  0  0  0
 21 59  1  0  0  0
 21 60  1  0  0  0
 22 26  1  0  0  0
 22 23  1  0  0  0
 22 61  1  0  0  0
 23 24  1  0  0  0
 23 62  1  0  0  0
 23 63  1  0  0  0
 24 25  1  0  0  0
 24 64  1  0  0  0
 24 65  1  0  0  0
 25 26  1  0  0  0
 25 66  1  0  0  0
 26 27  2  0  0  0
 28 29  2  0  0  0
 28 30  1  0  0  0
 30 38  1  0  0  0
 30 31  2  0  0  0
 31 32  1  0  0  0
 32 37  2  0  0  0
 32 33  1  0  0  0
 33 34  2  0  0  0
 33 67  1  0  0  0
 34 35  1  0  0  0
 34 68  1  0  0  0
 35 36  2  0  0  0
 35 69  1  0  0  0
 36 37  1  0  0  0
 36 70  1  0  0  0
 37 38  1  0  0  0
M  END
$$$$
