@<TRIPOS>MOLECULE
*****
 70 73 0 0 0
SMALL
GASTEIGER
****
Schrodinger Suite 2019-4.
@<TRIPOS>ATOM
      1 C         -29.0242   -5.7020  -23.7848 C.3     1  UNL1       -0.0544
      2 C         -28.7140   -4.9874  -25.1156 C.3     1  UNL1        0.0303
      3 C         -29.7546   -5.3307  -26.1694 C.3     1  UNL1       -0.0544
      4 C         -27.3220   -5.3528  -25.6193 C.2     1  UNL1        0.2198
      5 O         -26.7359   -6.3159  -25.1293 O.2     1  UNL1       -0.2752
      6 N         -26.8085   -4.5809  -26.5920 N.am    1  UNL1       -0.2853
      7 C         -25.5616   -4.7733  -27.2376 C.ar    1  UNL1        0.0335
      8 C         -25.2169   -6.0755  -27.6294 C.ar    1  UNL1       -0.0387
      9 C         -24.0212   -6.3090  -28.3250 C.ar    1  UNL1       -0.0385
     10 C         -23.1241   -5.2418  -28.5646 C.ar    1  UNL1        0.0376
     11 N         -21.9249   -5.4415  -29.2948 N.am    1  UNL1       -0.2538
     12 C         -20.7587   -5.4780  -28.5951 C.2     1  UNL1        0.2423
     13 O         -19.6433   -5.4426  -29.1151 O.2     1  UNL1       -0.2732
     14 C         -20.8422   -5.5199  -27.0484 C.3     1  UNL1        0.1204
     15 N         -19.7419   -6.2615  -26.4865 N.ar    1  UNL1       -0.2351
     16 N         -19.7563   -7.6231  -26.5295 N.ar    1  UNL1       -0.0641
     17 N         -18.6269   -8.0633  -26.0669 N.ar    1  UNL1       -0.1295
     18 C         -17.8629   -6.9695  -25.7076 C.ar    1  UNL1        0.1127
     19 C         -16.5473   -6.8694  -25.2144 C.ar    1  UNL1       -0.0324
     20 C         -16.0097   -5.6047  -24.9207 C.ar    1  UNL1       -0.0596
     21 C         -16.7882   -4.4429  -25.0550 C.ar    1  UNL1       -0.0596
     22 C         -18.0776   -4.5104  -25.6039 C.ar    1  UNL1       -0.0345
     23 C         -18.5855   -5.7764  -25.9256 C.ar    1  UNL1        0.0895
     24 C         -22.1325   -5.5494  -30.7670 C.3     1  UNL1        0.1326
     25 C         -20.9187   -5.6893  -31.7260 C.2     1  UNL1        0.2388
     26 O         -19.8570   -5.1103  -31.5015 O.2     1  UNL1       -0.2734
     27 N         -21.1085   -6.4782  -32.8043 N.am    1  UNL1       -0.3087
     28 C         -20.1511   -6.8493  -33.8626 C.3     1  UNL1        0.0262
     29 C         -20.7359   -8.0358  -34.6534 C.3     1  UNL1       -0.0442
     30 C         -18.8082   -7.3072  -33.2532 C.3     1  UNL1       -0.0442
     31 C         -19.9413   -5.6703  -34.8371 C.3     1  UNL1       -0.0442
     32 C         -22.8831   -4.2915  -31.1475 C.ar    1  UNL1       -0.0109
     33 C         -22.4732   -2.9819  -30.7652 C.ar    1  UNL1       -0.0493
     34 C         -23.4046   -2.0104  -30.9936 C.ar    1  UNL1       -0.0240
     35 S         -24.8752   -2.7087  -31.5879 S.2     1  UNL1       -0.1047
     36 C         -24.1444   -4.2812  -31.6791 C.ar    1  UNL1       -0.0189
     37 C         -23.4283   -3.9494  -28.1156 C.ar    1  UNL1       -0.0385
     38 C         -24.6572   -3.7149  -27.4894 C.ar    1  UNL1       -0.0387
     39 H         -28.3358   -5.3884  -22.9989 H       1  UNL1        0.0237
     40 H         -30.0350   -5.5098  -23.4342 H       1  UNL1        0.0237
     41 H         -28.9421   -6.7858  -23.8811 H       1  UNL1        0.0237
     42 H         -28.7352   -3.9154  -24.9727 H       1  UNL1        0.0389
     43 H         -29.7352   -4.6120  -26.9866 H       1  UNL1        0.0237
     44 H         -29.5563   -6.3100  -26.5757 H       1  UNL1        0.0237
     45 H         -30.7523   -5.3516  -25.7360 H       1  UNL1        0.0237
     46 H         -27.3202   -3.7455  -26.8366 H       1  UNL1        0.1548
     47 H         -25.9006   -6.8829  -27.4487 H       1  UNL1        0.0637
     48 H         -23.8090   -7.3053  -28.6819 H       1  UNL1        0.0637
     49 H         -21.7540   -5.9929  -26.6817 H       1  UNL1        0.0606
     50 H         -20.8245   -4.5019  -26.6556 H       1  UNL1        0.0606
     51 H         -15.9470   -7.7559  -25.0720 H       1  UNL1        0.0640
     52 H         -14.9965   -5.5268  -24.5773 H       1  UNL1        0.0618
     53 H         -16.3845   -3.5102  -24.7205 H       1  UNL1        0.0618
     54 H         -18.6634   -3.6166  -25.7569 H       1  UNL1        0.0639
     55 H         -22.7751   -6.4152  -30.9400 H       1  UNL1        0.0651
     56 H         -22.0204   -6.9039  -32.8849 H       1  UNL1        0.1493
     57 H         -19.9995   -8.4521  -35.3425 H       1  UNL1        0.0250
     58 H         -21.0566   -8.8421  -33.9930 H       1  UNL1        0.0250
     59 H         -21.5814   -7.7451  -35.2728 H       1  UNL1        0.0250
     60 H         -18.3724   -8.1530  -33.7871 H       1  UNL1        0.0250
     61 H         -18.0714   -6.5126  -33.3202 H       1  UNL1        0.0250
     62 H         -18.9039   -7.6040  -32.2072 H       1  UNL1        0.0250
     63 H         -19.3353   -5.9678  -35.6922 H       1  UNL1        0.0250
     64 H         -20.8904   -5.3059  -35.2280 H       1  UNL1        0.0250
     65 H         -19.4378   -4.8267  -34.3650 H       1  UNL1        0.0250
     66 H         -21.5465   -2.8458  -30.2457 H       1  UNL1        0.0626
     67 H         -23.3510   -0.9581  -30.7584 H       1  UNL1        0.0693
     68 H         -24.7485   -5.1159  -31.9851 H       1  UNL1        0.0697
     69 H         -22.7498   -3.1289  -28.2964 H       1  UNL1        0.0637
     70 H         -24.8754   -2.6993  -27.2064 H       1  UNL1        0.0637
@<TRIPOS>BOND
     1     1     2    1
     2     1    39    1
     3     1    40    1
     4     1    41    1
     5     2     3    1
     6     2     4    1
     7     2    42    1
     8     3    43    1
     9     3    44    1
    10     3    45    1
    11     4     5    2
    12     4     6   am
    13     6     7    1
    14     6    46    1
    15     7    38   ar
    16     7     8   ar
    17     8     9   ar
    18     8    47    1
    19     9    10   ar
    20     9    48    1
    21    10    11    1
    22    10    37   ar
    23    11    12   am
    24    11    24    1
    25    12    13    2
    26    12    14    1
    27    14    15    1
    28    14    49    1
    29    14    50    1
    30    15    23   ar
    31    15    16   ar
    32    16    17   ar
    33    17    18   ar
    34    18    23   ar
    35    18    19   ar
    36    19    20   ar
    37    19    51    1
    38    20    21   ar
    39    20    52    1
    40    21    22   ar
    41    21    53    1
    42    22    23   ar
    43    22    54    1
    44    24    25    1
    45    24    32    1
    46    24    55    1
    47    25    26    2
    48    25    27   am
    49    27    28    1
    50    27    56    1
    51    28    29    1
    52    28    30    1
    53    28    31    1
    54    29    57    1
    55    29    58    1
    56    29    59    1
    57    30    60    1
    58    30    61    1
    59    30    62    1
    60    31    63    1
    61    31    64    1
    62    31    65    1
    63    32    36   ar
    64    32    33   ar
    65    33    34   ar
    66    33    66    1
    67    34    35   ar
    68    34    67    1
    69    35    36   ar
    70    36    68    1
    71    37    38   ar
    72    37    69    1
    73    38    70    1
