
                    3D
 Schrodinger Suite 2019-4.
 70 73  0  0  1  0            999 V2000
  -29.0242   -5.7020  -23.7848 C   0  0  0  0  0  0
  -28.7140   -4.9874  -25.1156 C   0  0  0  0  0  0
  -29.7546   -5.3307  -26.1694 C   0  0  0  0  0  0
  -27.3220   -5.3528  -25.6193 C   0  0  0  0  0  0
  -26.7359   -6.3159  -25.1293 O   0  0  0  0  0  0
  -26.8085   -4.5809  -26.5920 N   0  0  0  0  0  0
  -25.5616   -4.7733  -27.2376 C   0  0  0  0  0  0
  -25.2169   -6.0755  -27.6294 C   0  0  0  0  0  0
  -24.0212   -6.3090  -28.3250 C   0  0  0  0  0  0
  -23.1241   -5.2418  -28.5646 C   0  0  0  0  0  0
  -21.9249   -5.4415  -29.2948 N   0  0  0  0  0  0
  -20.7587   -5.4780  -28.5951 C   0  0  0  0  0  0
  -19.6433   -5.4426  -29.1151 O   0  0  0  0  0  0
  -20.8422   -5.5199  -27.0484 C   0  0  0  0  0  0
  -19.7419   -6.2615  -26.4865 N   0  0  0  0  0  0
  -19.7563   -7.6231  -26.5295 N   0  0  0  0  0  0
  -18.6269   -8.0633  -26.0669 N   0  0  0  0  0  0
  -17.8629   -6.9695  -25.7076 C   0  0  0  0  0  0
  -16.5473   -6.8694  -25.2144 C   0  0  0  0  0  0
  -16.0097   -5.6047  -24.9207 C   0  0  0  0  0  0
  -16.7882   -4.4429  -25.0550 C   0  0  0  0  0  0
  -18.0776   -4.5104  -25.6039 C   0  0  0  0  0  0
  -18.5855   -5.7764  -25.9256 C   0  0  0  0  0  0
  -22.1325   -5.5494  -30.7670 C   0  0  2  0  0  0
  -20.9187   -5.6893  -31.7260 C   0  0  0  0  0  0
  -19.8570   -5.1103  -31.5015 O   0  0  0  0  0  0
  -21.1085   -6.4782  -32.8043 N   0  0  0  0  0  0
  -20.1511   -6.8493  -33.8626 C   0  0  0  0  0  0
  -20.7359   -8.0358  -34.6534 C   0  0  0  0  0  0
  -18.8082   -7.3072  -33.2532 C   0  0  0  0  0  0
  -19.9413   -5.6703  -34.8371 C   0  0  0  0  0  0
  -22.8831   -4.2915  -31.1475 C   0  0  0  0  0  0
  -22.4732   -2.9819  -30.7652 C   0  0  0  0  0  0
  -23.4046   -2.0104  -30.9936 C   0  0  0  0  0  0
  -24.8752   -2.7087  -31.5879 S   0  0  0  0  0  0
  -24.1444   -4.2812  -31.6791 C   0  0  0  0  0  0
  -23.4283   -3.9494  -28.1156 C   0  0  0  0  0  0
  -24.6572   -3.7149  -27.4894 C   0  0  0  0  0  0
  -28.3358   -5.3884  -22.9989 H   0  0  0  0  0  0
  -30.0350   -5.5098  -23.4342 H   0  0  0  0  0  0
  -28.9421   -6.7858  -23.8811 H   0  0  0  0  0  0
  -28.7352   -3.9154  -24.9727 H   0  0  0  0  0  0
  -29.7352   -4.6120  -26.9866 H   0  0  0  0  0  0
  -29.5563   -6.3100  -26.5757 H   0  0  0  0  0  0
  -30.7523   -5.3516  -25.7360 H   0  0  0  0  0  0
  -27.3202   -3.7455  -26.8366 H   0  0  0  0  0  0
  -25.9006   -6.8829  -27.4487 H   0  0  0  0  0  0
  -23.8090   -7.3053  -28.6819 H   0  0  0  0  0  0
  -21.7540   -5.9929  -26.6817 H   0  0  0  0  0  0
  -20.8245   -4.5019  -26.6556 H   0  0  0  0  0  0
  -15.9470   -7.7559  -25.0720 H   0  0  0  0  0  0
  -14.9965   -5.5268  -24.5773 H   0  0  0  0  0  0
  -16.3845   -3.5102  -24.7205 H   0  0  0  0  0  0
  -18.6634   -3.6166  -25.7569 H   0  0  0  0  0  0
  -22.7751   -6.4152  -30.9400 H   0  0  0  0  0  0
  -22.0204   -6.9039  -32.8849 H   0  0  0  0  0  0
  -19.9995   -8.4521  -35.3425 H   0  0  0  0  0  0
  -21.0566   -8.8421  -33.9930 H   0  0  0  0  0  0
  -21.5814   -7.7451  -35.2728 H   0  0  0  0  0  0
  -18.3724   -8.1530  -33.7871 H   0  0  0  0  0  0
  -18.0714   -6.5126  -33.3202 H   0  0  0  0  0  0
  -18.9039   -7.6040  -32.2072 H   0  0  0  0  0  0
  -19.3353   -5.9678  -35.6922 H   0  0  0  0  0  0
  -20.8904   -5.3059  -35.2280 H   0  0  0  0  0  0
  -19.4378   -4.8267  -34.3650 H   0  0  0  0  0  0
  -21.5465   -2.8458  -30.2457 H   0  0  0  0  0  0
  -23.3510   -0.9581  -30.7584 H   0  0  0  0  0  0
  -24.7485   -5.1159  -31.9851 H   0  0  0  0  0  0
  -22.7498   -3.1289  -28.2964 H   0  0  0  0  0  0
  -24.8754   -2.6993  -27.2064 H   0  0  0  0  0  0
  1  2  1  0  0  0
  1 39  1  0  0  0
  1 40  1  0  0  0
  1 41  1  0  0  0
  2  3  1  0  0  0
  2  4  1  0  0  0
  2 42  1  0  0  0
  3 43  1  0  0  0
  3 44  1  0  0  0
  3 45  1  0  0  0
  4  5  2  0  0  0
  4  6  1  0  0  0
  6  7  1  0  0  0
  6 46  1  0  0  0
  7 38  1  0  0  0
  7  8  2  0  0  0
  8  9  1  0  0  0
  8 47  1  0  0  0
  9 10  2  0  0  0
  9 48  1  0  0  0
 10 11  1  0  0  0
 10 37  1  0  0  0
 11 12  1  0  0  0
 11 24  1  0  0  0
 12 13  2  0  0  0
 12 14  1  0  0  0
 14 15  1  0  0  0
 14 49  1  0  0  0
 14 50  1  0  0  0
 15 23  1  0  0  0
 15 16  1  0  0  0
 16 17  2  0  0  0
 17 18  1  0  0  0
 18 23  2  0  0  0
 18 19  1  0  0  0
 19 20  2  0  0  0
 19 51  1  0  0  0
 20 21  1  0  0  0
 20 52  1  0  0  0
 21 22  2  0  0  0
 21 53  1  0  0  0
 22 23  1  0  0  0
 22 54  1  0  0  0
 24 25  1  0  0  0
 24 32  1  0  0  0
 24 55  1  0  0  0
 25 26  2  0  0  0
 25 27  1  0  0  0
 27 28  1  0  0  0
 27 56  1  0  0  0
 28 29  1  0  0  0
 28 30  1  0  0  0
 28 31  1  0  0  0
 29 57  1  0  0  0
 29 58  1  0  0  0
 29 59  1  0  0  0
 30 60  1  0  0  0
 30 61  1  0  0  0
 30 62  1  0  0  0
 31 63  1  0  0  0
 31 64  1  0  0  0
 31 65  1  0  0  0
 32 36  2  0  0  0
 32 33  1  0  0  0
 33 34  2  0  0  0
 33 66  1  0  0  0
 34 35  1  0  0  0
 34 67  1  0  0  0
 35 36  1  0  0  0
 36 68  1  0  0  0
 37 38  2  0  0  0
 37 69  1  0  0  0
 38 70  1  0  0  0
M  END
$$$$
