@<TRIPOS>MOLECULE
*****
 75 78 0 0 0
SMALL
GASTEIGER
****
Schrodinger Suite 2019-4.
@<TRIPOS>ATOM
      1 C         -28.4228   -6.5836  -25.3904 C.3     1  UNL1        0.0789
      2 O         -27.1302   -6.0846  -25.0591 O.3     1  UNL1       -0.4933
      3 C         -26.6180   -4.9958  -25.7417 C.ar    1  UNL1        0.1408
      4 C         -27.3157   -4.3654  -26.7837 C.ar    1  UNL1       -0.0181
      5 C         -26.7555   -3.2896  -27.4599 C.ar    1  UNL1       -0.0582
      6 C         -25.4803   -2.8566  -27.1384 C.ar    1  UNL1       -0.0598
      7 C         -24.7941   -3.4323  -26.0788 C.ar    1  UNL1       -0.0373
      8 C         -25.3535   -4.4953  -25.3606 C.ar    1  UNL1        0.0698
      9 N         -24.6799   -5.0707  -24.2627 N.pl3   1  UNL1       -0.3326
     10 C         -23.7878   -4.3390  -23.3750 C.3     1  UNL1        0.0859
     11 C         -22.3264   -4.1386  -23.8494 C.2     1  UNL1        0.2307
     12 O         -21.5475   -3.4856  -23.1490 O.2     1  UNL1       -0.2741
     13 N         -21.9807   -4.6977  -25.0191 N.am    1  UNL1       -0.3027
     14 C         -20.7291   -4.6343  -25.7746 C.3     1  UNL1        0.0996
     15 C         -19.5473   -5.1737  -24.9165 C.3     1  UNL1       -0.0236
     16 C         -18.2107   -5.4849  -25.6437 C.3     1  UNL1       -0.0446
     17 C         -18.1102   -6.9694  -26.0376 C.3     1  UNL1       -0.0626
     18 C         -16.9619   -5.0647  -24.8380 C.3     1  UNL1       -0.0626
     19 C         -21.0017   -5.4269  -27.0684 C.2     1  UNL1        0.2339
     20 O         -21.6848   -6.4486  -26.9914 O.2     1  UNL1       -0.2738
     21 N         -20.5037   -4.9578  -28.2292 N.am    1  UNL1       -0.3037
     22 C         -20.6271   -5.6484  -29.5442 C.3     1  UNL1        0.0888
     23 C         -21.0564   -4.7240  -30.7274 C.3     1  UNL1       -0.0160
     24 C         -21.7920   -3.4022  -30.3776 C.3     1  UNL1        0.0390
     25 C         -23.0528   -3.5534  -29.5330 C.3     1  UNL1       -0.0262
     26 C         -24.2033   -3.1128  -30.4131 C.3     1  UNL1        0.0123
     27 N         -23.5653   -2.5641  -31.5981 N.am    1  UNL1       -0.3151
     28 C         -22.2379   -2.7151  -31.6780 C.2     1  UNL1        0.2162
     29 O         -21.5117   -2.3614  -32.6029 O.2     1  UNL1       -0.2755
     30 C         -19.3030   -6.3716  -29.8474 C.2     1  UNL1        0.2079
     31 O         -18.3286   -6.2284  -29.1056 O.2     1  UNL1       -0.2879
     32 C         -19.1874   -7.2332  -31.0364 C.ar    1  UNL1        0.1465
     33 N         -20.1271   -7.4823  -31.9137 N.ar    1  UNL1       -0.2360
     34 C         -19.6985   -8.3213  -32.8966 C.ar    1  UNL1        0.0790
     35 C         -20.4777   -8.7511  -33.9815 C.ar    1  UNL1       -0.0352
     36 C         -19.9020   -9.6149  -34.9164 C.ar    1  UNL1       -0.0597
     37 C         -18.5830  -10.0474  -34.7828 C.ar    1  UNL1       -0.0606
     38 C         -17.7838   -9.6291  -33.7184 C.ar    1  UNL1       -0.0459
     39 C         -18.3557   -8.7627  -32.7749 C.ar    1  UNL1        0.0396
     40 S         -17.6535   -8.0517  -31.3373 S.2     1  UNL1       -0.0643
     41 H         -28.6743   -7.4068  -24.7184 H       1  UNL1        0.0660
     42 H         -29.1925   -5.8175  -25.2806 H       1  UNL1        0.0660
     43 H         -28.4448   -6.9746  -26.4102 H       1  UNL1        0.0660
     44 H         -28.2933   -4.6967  -27.0964 H       1  UNL1        0.0655
     45 H         -27.3054   -2.8150  -28.2563 H       1  UNL1        0.0619
     46 H         -25.0286   -2.0551  -27.6968 H       1  UNL1        0.0618
     47 H         -23.8283   -3.0249  -25.8319 H       1  UNL1        0.0637
     48 H         -25.3505   -5.6499  -23.7675 H       1  UNL1        0.1467
     49 H         -23.6609   -4.9202  -22.4608 H       1  UNL1        0.0557
     50 H         -24.2000   -3.3928  -23.0232 H       1  UNL1        0.0557
     51 H         -22.6943   -5.2547  -25.4784 H       1  UNL1        0.1495
     52 H         -20.5375   -3.5959  -26.0448 H       1  UNL1        0.0594
     53 H         -19.8619   -6.0672  -24.3756 H       1  UNL1        0.0290
     54 H         -19.3638   -4.4314  -24.1392 H       1  UNL1        0.0290
     55 H         -18.1867   -4.8970  -26.5632 H       1  UNL1        0.0296
     56 H         -17.3126   -7.1250  -26.7656 H       1  UNL1        0.0232
     57 H         -17.8868   -7.5969  -25.1729 H       1  UNL1        0.0232
     58 H         -19.0343   -7.3390  -26.4776 H       1  UNL1        0.0232
     59 H         -16.3012   -4.4560  -25.4559 H       1  UNL1        0.0232
     60 H         -17.1952   -4.4823  -23.9476 H       1  UNL1        0.0232
     61 H         -16.3753   -5.9237  -24.5090 H       1  UNL1        0.0232
     62 H         -20.0009   -4.0791  -28.2269 H       1  UNL1        0.1495
     63 H         -21.3920   -6.4249  -29.4622 H       1  UNL1        0.0582
     64 H         -21.6849   -5.3144  -31.3968 H       1  UNL1        0.0295
     65 H         -20.1872   -4.4512  -31.3334 H       1  UNL1        0.0295
     66 H         -21.1143   -2.7291  -29.8607 H       1  UNL1        0.0395
     67 H         -22.9806   -2.9067  -28.6586 H       1  UNL1        0.0288
     68 H         -23.2071   -4.5670  -29.1689 H       1  UNL1        0.0288
     69 H         -24.7926   -2.3421  -29.9201 H       1  UNL1        0.0462
     70 H         -24.8562   -3.9507  -30.6532 H       1  UNL1        0.0462
     71 H         -24.0928   -2.1219  -32.3351 H       1  UNL1        0.1487
     72 H         -21.4997   -8.4270  -34.0986 H       1  UNL1        0.0639
     73 H         -20.4846   -9.9525  -35.7623 H       1  UNL1        0.0618
     74 H         -18.1715  -10.7150  -35.5262 H       1  UNL1        0.0618
     75 H         -16.7594   -9.9613  -33.6239 H       1  UNL1        0.0629
@<TRIPOS>BOND
     1     1     2    1
     2     1    41    1
     3     1    42    1
     4     1    43    1
     5     2     3    1
     6     3     8   ar
     7     3     4   ar
     8     4     5   ar
     9     4    44    1
    10     5     6   ar
    11     5    45    1
    12     6     7   ar
    13     6    46    1
    14     7     8   ar
    15     7    47    1
    16     8     9    1
    17     9    10    1
    18     9    48    1
    19    10    11    1
    20    10    49    1
    21    10    50    1
    22    11    12    2
    23    11    13   am
    24    13    14    1
    25    13    51    1
    26    14    15    1
    27    14    19    1
    28    14    52    1
    29    15    16    1
    30    15    53    1
    31    15    54    1
    32    16    17    1
    33    16    18    1
    34    16    55    1
    35    17    56    1
    36    17    57    1
    37    17    58    1
    38    18    59    1
    39    18    60    1
    40    18    61    1
    41    19    20    2
    42    19    21   am
    43    21    22    1
    44    21    62    1
    45    22    23    1
    46    22    30    1
    47    22    63    1
    48    23    24    1
    49    23    64    1
    50    23    65    1
    51    24    28    1
    52    24    25    1
    53    24    66    1
    54    25    26    1
    55    25    67    1
    56    25    68    1
    57    26    27    1
    58    26    69    1
    59    26    70    1
    60    27    28   am
    61    27    71    1
    62    28    29    2
    63    30    31    2
    64    30    32    1
    65    32    40   ar
    66    32    33   ar
    67    33    34   ar
    68    34    39   ar
    69    34    35   ar
    70    35    36   ar
    71    35    72    1
    72    36    37   ar
    73    36    73    1
    74    37    38   ar
    75    37    74    1
    76    38    39   ar
    77    38    75    1
    78    39    40   ar
