@<TRIPOS>MOLECULE
*****
 69 73 0 0 0
SMALL
GASTEIGER
****
Schrodinger Suite 2019-4.
@<TRIPOS>ATOM
      1 O         -20.8007   -3.5359  -22.7492 O.co2   1  HIS1       -0.8752
      2 C         -21.0220   -3.8007  -23.9845 C.2     1  HIS1       -0.0846
      3 CA        -20.1425   -3.9495  -25.0025 C.2     1  HIS1        0.1103
      4 CB        -18.6369   -3.7696  -24.8374 C.3     1  HIS1        0.0689
      5 CG        -17.7435   -4.9929  -24.9259 C.ar    1  HIS1        0.0686
      6 CD2       -16.3753   -5.0269  -25.1574 C.ar    1  HIS1        0.0248
      7 NE2       -16.0196   -6.3458  -25.1490 N.ar    1  HIS1       -0.3506
      8 CE1       -17.1815   -7.0234  -24.8990 C.ar    1  HIS1        0.0936
      9 ND1       -18.2115   -6.2244  -24.7503 N.ar    1  HIS1       -0.2404
     10 C         -22.0211   -4.4038  -26.7113 C.3     0  UNK0        0.1079
     11 C         -22.3203   -5.2216  -27.9851 C.3     0  UNK0        0.0799
     12 C         -21.8117   -4.6412  -29.3309 C.3     0  UNK0       -0.0254
     13 C         -22.6470   -3.4840  -29.9073 C.3     0  UNK0       -0.0349
     14 C         -22.2633   -3.1571  -31.3705 C.3     0  UNK0       -0.0498
     15 C         -23.0452   -1.9429  -31.9068 C.3     0  UNK0       -0.0528
     16 C         -24.5705   -2.1234  -31.7367 C.3     0  UNK0       -0.0527
     17 C         -24.9340   -2.5945  -30.3204 C.3     0  UNK0       -0.0485
     18 C         -24.1422   -3.8528  -29.9110 C.3     0  UNK0       -0.0223
     19 C         -24.6334   -4.3500  -28.5453 C.3     0  UNK0        0.0186
     20 N         -23.7803   -5.4708  -28.0868 N.am    0  UNK0       -0.2883
     21 C         -24.2901   -6.5988  -27.5015 C.2     0  UNK0        0.2476
     22 O         -23.5633   -7.5339  -27.1465 O.2     0  UNK0       -0.2700
     23 C         -25.7830   -6.7164  -27.2291 C.ar    0  UNK0        0.0446
     24 C         -26.4579   -5.6567  -26.5945 C.ar    0  UNK0       -0.0490
     25 C         -27.8071   -5.7432  -26.2679 C.ar    0  UNK0       -0.0610
     26 C         -28.5082   -6.9077  -26.5420 C.ar    0  UNK0       -0.0611
     27 C         -27.8515   -7.9767  -27.1455 C.ar    0  UNK0       -0.0533
     28 C         -26.4985   -7.9096  -27.5006 C.ar    0  UNK0       -0.0058
     29 C         -25.8940   -9.1137  -28.1433 C.ar    0  UNK0       -0.0172
     30 C         -25.9316  -10.3486  -27.4838 C.ar    0  UNK0       -0.0540
     31 C         -25.3598  -11.4769  -28.0630 C.ar    0  UNK0       -0.0612
     32 C         -24.7487  -11.3768  -29.3085 C.ar    0  UNK0       -0.0617
     33 C         -24.7071  -10.1574  -29.9790 C.ar    0  UNK0       -0.0612
     34 C         -25.2897   -9.0315  -29.4024 C.ar    0  UNK0       -0.0540
     35 N         -20.5187   -4.3432  -26.3813 N.pl3   1  HIS1       -0.4022
     36 H         -22.0610   -3.9142  -24.2377 H       1  HIS1        0.0504
     37 HB1       -18.4398   -3.2685  -23.8893 H       1  HIS1        0.0434
     38 HB2       -18.3294   -3.0391  -25.5851 H       1  HIS1        0.0434
     39 HD2       -15.6480   -4.2484  -25.3391 H       1  HIS1        0.0825
     40 HE2       -15.0935   -6.7357  -25.3331 H       1  HIS1        0.1662
     41 HE1       -17.1815   -8.1016  -24.8466 H       1  HIS1        0.1027
     42 H         -22.4811   -4.9468  -25.8882 H       0  UNK0        0.0987
     43 H         -22.3738   -3.3726  -26.7372 H       0  UNK0        0.0987
     44 H         -21.7994   -6.1748  -27.8773 H       0  UNK0        0.0561
     45 H         -21.8829   -5.4681  -30.0418 H       0  UNK0        0.0288
     46 H         -20.7465   -4.4121  -29.3213 H       0  UNK0        0.0288
     47 H         -22.5017   -2.6112  -29.2658 H       0  UNK0        0.0305
     48 H         -22.4247   -4.0290  -32.0059 H       0  UNK0        0.0268
     49 H         -21.1997   -2.9728  -31.4509 H       0  UNK0        0.0268
     50 H         -22.7993   -1.8025  -32.9599 H       0  UNK0        0.0265
     51 H         -22.7188   -1.0433  -31.3821 H       0  UNK0        0.0265
     52 H         -24.9321   -2.8565  -32.4573 H       0  UNK0        0.0265
     53 H         -25.0876   -1.1876  -31.9408 H       0  UNK0        0.0265
     54 H         -25.9964   -2.8008  -30.2636 H       0  UNK0        0.0269
     55 H         -24.7745   -1.7951  -29.5929 H       0  UNK0        0.0269
     56 H         -24.3124   -4.6490  -30.6405 H       0  UNK0        0.0319
     57 H         -25.6631   -4.6599  -28.7222 H       0  UNK0        0.0467
     58 H         -24.5936   -3.5384  -27.8165 H       0  UNK0        0.0467
     59 H         -25.9379   -4.7403  -26.3475 H       0  UNK0        0.0625
     60 H         -28.3058   -4.9138  -25.7890 H       0  UNK0        0.0618
     61 H         -29.5539   -6.9898  -26.2867 H       0  UNK0        0.0618
     62 H         -28.4000   -8.8840  -27.3463 H       0  UNK0        0.0624
     63 H         -26.3958  -10.4295  -26.5112 H       0  UNK0        0.0624
     64 H         -25.3931  -12.4267  -27.5472 H       0  UNK0        0.0618
     65 H         -24.3050  -12.2510  -29.7609 H       0  UNK0        0.0618
     66 H         -24.2364  -10.0839  -30.9458 H       0  UNK0        0.0618
     67 H         -25.2591   -8.0905  -29.9301 H       0  UNK0        0.0624
     68 H1        -20.1189   -5.2529  -26.5690 H       1  HIS1        0.3725
     69 H2        -20.0943   -3.6967  -27.0308 H       1  HIS1        0.3725
@<TRIPOS>BOND
     1     1     2    1
     2     2     3    2
     3     2    36    1
     4     3     4    1
     5     3    35    1
     6     4     5    1
     7     4    37    1
     8     4    38    1
     9     5     9   ar
    10     5     6   ar
    11     6     7   ar
    12     6    39    1
    13     7     8   ar
    14     7    40    1
    15     8     9   ar
    16     8    41    1
    17    10    11    1
    18    10    35    1
    19    10    42    1
    20    10    43    1
    21    11    20    1
    22    11    12    1
    23    11    44    1
    24    12    13    1
    25    12    45    1
    26    12    46    1
    27    13    18    1
    28    13    14    1
    29    13    47    1
    30    14    15    1
    31    14    48    1
    32    14    49    1
    33    15    16    1
    34    15    50    1
    35    15    51    1
    36    16    17    1
    37    16    52    1
    38    16    53    1
    39    17    18    1
    40    17    54    1
    41    17    55    1
    42    18    19    1
    43    18    56    1
    44    19    20    1
    45    19    57    1
    46    19    58    1
    47    20    21   am
    48    21    22    2
    49    21    23    1
    50    23    28   ar
    51    23    24   ar
    52    24    25   ar
    53    24    59    1
    54    25    26   ar
    55    25    60    1
    56    26    27   ar
    57    26    61    1
    58    27    28   ar
    59    27    62    1
    60    28    29    1
    61    29    34   ar
    62    29    30   ar
    63    30    31   ar
    64    30    63    1
    65    31    32   ar
    66    31    64    1
    67    32    33   ar
    68    32    65    1
    69    33    34   ar
    70    33    66    1
    71    34    67    1
    72    35    68    1
    73    35    69    1
