@<TRIPOS>MOLECULE
*****
 104 104 0 0 0
SMALL
GASTEIGER
****
Schrodinger Suite 2019-4.
@<TRIPOS>ATOM
      1 C         -16.5136  -14.1392  -34.3480 C.3     1  UNK1       -0.0626
      2 C         -16.6723  -12.6175  -34.1340 C.3     1  UNK1       -0.0446
      3 C         -15.3461  -11.8724  -34.3623 C.3     1  UNK1       -0.0626
      4 C         -17.2673  -12.3041  -32.7424 C.3     1  UNK1       -0.0236
      5 C         -17.5825  -10.8086  -32.4707 C.3     1  UNK1        0.0997
      6 N         -18.0106  -10.6905  -31.0744 N.am    1  UNK1       -0.3025
      7 C         -18.0369   -9.5565  -30.3560 C.2     1  UNK1        0.2342
      8 O         -17.7229   -8.4513  -30.8031 O.2     1  UNK1       -0.2738
      9 C         -18.4366   -9.6986  -28.8702 C.3     1  UNK1        0.1017
     10 N         -17.8080   -8.6222  -28.1125 N.am    1  UNK1       -0.3022
     11 C         -17.7199   -8.5544  -26.7766 C.2     1  UNK1        0.2337
     12 O         -18.1611   -9.4126  -26.0083 O.2     1  UNK1       -0.2738
     13 C         -17.0323   -7.3062  -26.2081 C.3     1  UNK1        0.0966
     14 C         -16.0182   -7.6696  -25.1145 C.3     1  UNK1       -0.0381
     15 N         -18.0239   -6.3893  -25.6559 N.am    1  UNK1       -0.3027
     16 C         -18.8184   -5.5898  -26.3913 C.2     1  UNK1        0.2362
     17 O         -18.7196   -5.4518  -27.6130 O.2     1  UNK1       -0.2737
     18 C         -19.9163   -4.8447  -25.6024 C.3     1  UNK1        0.1226
     19 C         -21.2275   -5.6494  -25.4889 C.3     1  UNK1        0.0711
     20 O         -21.7934   -5.9431  -26.7529 O.3     1  UNK1       -0.3927
     21 N         -20.2514   -3.5449  -26.1774 N.am    1  UNK1       -0.3005
     22 C         -19.4528   -2.4691  -26.1966 C.2     1  UNK1        0.2366
     23 O         -18.3244   -2.4802  -25.7093 O.2     1  UNK1       -0.2737
     24 C         -19.9578   -1.1636  -26.8885 C.3     1  UNK1        0.1279
     25 N         -21.1205   -1.2239  -27.7744 N.am    1  UNK1       -0.2673
     26 C         -21.3628   -2.1506  -28.7598 C.2     0  UNK0        0.4013
     27 O         -20.7642   -3.2130  -28.9607 O.2     0  UNK0       -0.2265
     28 O         -22.3172   -1.6301  -29.5418 O.3     0  UNK0       -0.4456
     29 C         -22.5866   -2.1342  -30.8391 C.3     0  UNK0        0.1191
     30 C         -24.0407   -2.5514  -30.9121 C.ar    0  UNK0       -0.0103
     31 C         -24.5053   -3.5987  -30.1147 C.ar    0  UNK0       -0.0554
     32 C         -25.8571   -3.9211  -30.1337 C.ar    0  UNK0       -0.0614
     33 C         -26.7295   -3.2123  -30.9574 C.ar    0  UNK0       -0.0617
     34 C         -26.2636   -2.1937  -31.7784 C.ar    0  UNK0       -0.0614
     35 C         -24.9178   -1.8562  -31.7418 C.ar    0  UNK0       -0.0554
     36 C         -20.3014   -0.1043  -25.7884 C.3     1  UNK1        0.0793
     37 C         -19.1064    0.3832  -24.9854 C.3     1  UNK1       -0.0367
     38 O         -20.8767    1.0878  -26.2950 O.3     1  UNK1       -0.3897
     39 C         -19.9902   -9.7197  -28.6896 C.3     1  UNK1       -0.0197
     40 C         -20.6722  -10.9375  -29.3424 C.3     1  UNK1       -0.0605
     41 C         -20.6965   -8.4293  -29.1420 C.3     1  UNK1       -0.0605
     42 C         -18.6297  -10.2258  -33.4432 C.2     1  UNK1        0.2343
     43 O         -19.5425  -10.9444  -33.8544 O.2     1  UNK1       -0.2737
     44 N         -18.4800   -8.9327  -33.7818 N.am    1  UNK1       -0.2983
     45 C         -19.3759   -8.2054  -34.6932 C.3     1  UNK1        0.1106
     46 C         -18.7892   -8.1074  -36.0415 C.1     1  UNK1        0.0849
     47 N         -18.3244   -8.0331  -37.0993 N.1     1  UNK1       -0.1946
     48 C         -19.7958   -6.8308  -34.1258 C.3     1  UNK1       -0.0130
     49 C         -20.4021   -6.9275  -32.7045 C.3     1  UNK1        0.0264
     50 C         -20.9873   -5.6228  -32.1536 C.2     1  UNK1        0.2106
     51 N         -20.9019   -5.4524  -30.8335 N.am    1  UNK1       -0.3293
     52 O         -21.5143   -4.7921  -32.8872 O.2     1  UNK1       -0.2760
     53 H         -16.9757  -14.7177  -33.5450 H       1  UNK1        0.0232
     54 H         -16.9852  -14.4500  -35.2803 H       1  UNK1        0.0232
     55 H         -15.4668  -14.4481  -34.3928 H       1  UNK1        0.0232
     56 H         -17.3770  -12.2782  -34.8953 H       1  UNK1        0.0296
     57 H         -15.5324  -10.8722  -34.7577 H       1  UNK1        0.0232
     58 H         -14.7799  -11.7602  -33.4359 H       1  UNK1        0.0232
     59 H         -14.7095  -12.3930  -35.0805 H       1  UNK1        0.0232
     60 H         -16.5741  -12.6640  -31.9806 H       1  UNK1        0.0290
     61 H         -18.1829  -12.8860  -32.6110 H       1  UNK1        0.0290
     62 H         -16.6588  -10.2370  -32.5777 H       1  UNK1        0.0594
     63 H         -18.2920  -11.5530  -30.6302 H       1  UNK1        0.1495
     64 H         -18.0248  -10.6399  -28.5057 H       1  UNK1        0.0597
     65 H         -17.4313   -7.8777  -28.6844 H       1  UNK1        0.1495
     66 H         -16.4840   -6.8071  -27.0104 H       1  UNK1        0.0592
     67 H         -15.5065   -6.7785  -24.7576 H       1  UNK1        0.0252
     68 H         -16.4948   -8.1527  -24.2597 H       1  UNK1        0.0252
     69 H         -15.2546   -8.3457  -25.4971 H       1  UNK1        0.0252
     70 H         -18.1360   -6.4159  -24.6538 H       1  UNK1        0.1495
     71 H         -19.5443   -4.6630  -24.5909 H       1  UNK1        0.0618
     72 H         -21.9575   -5.0953  -24.8951 H       1  UNK1        0.0580
     73 H         -21.0483   -6.5892  -24.9690 H       1  UNK1        0.0580
     74 H         -22.6565   -6.3424  -26.6218 H       1  UNK1        0.2095
     75 H         -21.1031   -3.5289  -26.7210 H       1  UNK1        0.1496
     76 H         -19.1293   -0.8009  -27.4890 H       1  UNK1        0.0621
     77 H         -21.7770   -0.4569  -27.6856 H       1  UNK1        0.1529
     78 H         -21.9463   -2.9660  -31.1209 H       0  UNK0        0.0749
     79 H         -22.3829   -1.3449  -31.5632 H       0  UNK0        0.0749
     80 H         -23.8249   -4.1430  -29.4739 H       0  UNK0        0.0621
     81 H         -26.2255   -4.7266  -29.5158 H       0  UNK0        0.0618
     82 H         -27.7754   -3.4785  -30.9740 H       0  UNK0        0.0618
     83 H         -26.9474   -1.6545  -32.4172 H       0  UNK0        0.0618
     84 H         -24.5584   -1.0415  -32.3518 H       0  UNK0        0.0621
     85 H         -21.0846   -0.5087  -25.1568 H       1  UNK1        0.0614
     86 H         -19.3501    1.2408  -24.3589 H       1  UNK1        0.0255
     87 H         -18.7177   -0.4107  -24.3578 H       1  UNK1        0.0255
     88 H         -18.3208    0.6847  -25.6634 H       1  UNK1        0.0255
     89 H         -20.2010    1.7786  -26.3582 H       1  UNK1        0.2099
     90 H         -20.1844   -9.8178  -27.6214 H       1  UNK1        0.0318
     91 H         -21.7209  -10.9971  -29.0550 H       1  UNK1        0.0233
     92 H         -20.6461  -10.8854  -30.4289 H       1  UNK1        0.0233
     93 H         -20.1977  -11.8682  -29.0344 H       1  UNK1        0.0233
     94 H         -21.7588   -8.4565  -28.8991 H       1  UNK1        0.0233
     95 H         -20.2798   -7.5493  -28.6538 H       1  UNK1        0.0233
     96 H         -20.6188   -8.2957  -30.2149 H       1  UNK1        0.0233
     97 H         -17.7438   -8.3986  -33.3334 H       1  UNK1        0.1500
     98 H         -20.2991   -8.7695  -34.8503 H       1  UNK1        0.0657
     99 H         -20.5174   -6.3788  -34.8095 H       1  UNK1        0.0298
    100 H         -18.9298   -6.1650  -34.1048 H       1  UNK1        0.0298
    101 H         -19.6273   -7.2736  -32.0208 H       1  UNK1        0.0359
    102 H         -21.2006   -7.6740  -32.6828 H       1  UNK1        0.0359
    103 H         -20.4490   -6.1403  -30.2515 H       1  UNK1        0.1449
    104 H         -21.2146   -4.5895  -30.4028 H       1  UNK1        0.1449
@<TRIPOS>BOND
     1     1     2    1
     2     1    53    1
     3     1    54    1
     4     1    55    1
     5     2     3    1
     6     2     4    1
     7     2    56    1
     8     3    57    1
     9     3    58    1
    10     3    59    1
    11     4     5    1
    12     4    60    1
    13     4    61    1
    14     5     6    1
    15     5    42    1
    16     5    62    1
    17     6     7   am
    18     6    63    1
    19     7     8    2
    20     7     9    1
    21     9    10    1
    22     9    39    1
    23     9    64    1
    24    10    11   am
    25    10    65    1
    26    11    12    2
    27    11    13    1
    28    13    14    1
    29    13    15    1
    30    13    66    1
    31    14    67    1
    32    14    68    1
    33    14    69    1
    34    15    16   am
    35    15    70    1
    36    16    17    2
    37    16    18    1
    38    18    19    1
    39    18    21    1
    40    18    71    1
    41    19    20    1
    42    19    72    1
    43    19    73    1
    44    20    74    1
    45    21    22   am
    46    21    75    1
    47    22    23    2
    48    22    24    1
    49    24    25    1
    50    24    36    1
    51    24    76    1
    52    25    26   am
    53    25    77    1
    54    26    27    2
    55    26    28    1
    56    28    29    1
    57    29    30    1
    58    29    78    1
    59    29    79    1
    60    30    35   ar
    61    30    31   ar
    62    31    32   ar
    63    31    80    1
    64    32    33   ar
    65    32    81    1
    66    33    34   ar
    67    33    82    1
    68    34    35   ar
    69    34    83    1
    70    35    84    1
    71    36    37    1
    72    36    38    1
    73    36    85    1
    74    37    86    1
    75    37    87    1
    76    37    88    1
    77    38    89    1
    78    39    40    1
    79    39    41    1
    80    39    90    1
    81    40    91    1
    82    40    92    1
    83    40    93    1
    84    41    94    1
    85    41    95    1
    86    41    96    1
    87    42    43    2
    88    42    44   am
    89    44    45    1
    90    44    97    1
    91    45    46    1
    92    45    48    1
    93    45    98    1
    94    46    47    3
    95    48    49    1
    96    48    99    1
    97    48   100    1
    98    49    50    1
    99    49   101    1
   100    49   102    1
   101    50    51   am
   102    50    52    2
   103    51   103    1
   104    51   104    1
