@<TRIPOS>MOLECULE
*****
 75 77 0 0 0
SMALL
GASTEIGER
****
Schrodinger Suite 2019-4.
@<TRIPOS>ATOM
      1 C         -23.3110   -0.6218  -30.5817 C.3     1  UNL1       -0.0653
      2 C         -23.8085   -1.9265  -31.2210 C.3     1  UNL1       -0.0558
      3 C         -22.8029   -3.0805  -31.0827 C.3     1  UNL1       -0.0512
      4 C         -22.7715   -3.6903  -29.6643 C.3     1  UNL1       -0.0260
      5 C         -21.4604   -4.4419  -29.3363 C.3     1  UNL1        0.0996
      6 N         -21.1492   -5.4860  -30.3155 N.am    1  UNL1       -0.3005
      7 C         -19.9606   -6.1004  -30.4316 C.2     1  UNL1        0.2375
      8 O         -18.9982   -5.8417  -29.7051 O.2     1  UNL1       -0.2708
      9 C         -19.9173   -7.0530  -31.5154 C.2     1  UNL1        0.0007
     10 C         -18.7971   -7.7371  -31.8298 C.2     1  UNL1       -0.0497
     11 C         -18.6431   -8.7198  -32.9240 C.ar    1  UNL1       -0.0249
     12 C         -19.7185   -9.1257  -33.7285 C.ar    1  UNL1       -0.0546
     13 C         -19.5193  -10.0475  -34.7532 C.ar    1  UNL1       -0.0612
     14 C         -18.2483  -10.5718  -34.9739 C.ar    1  UNL1       -0.0617
     15 C         -17.1737  -10.1805  -34.1805 C.ar    1  UNL1       -0.0612
     16 C         -17.3703   -9.2537  -33.1601 C.ar    1  UNL1       -0.0546
     17 C         -21.4983   -4.9917  -27.8969 C.2     1  UNL1        0.2339
     18 O         -22.3049   -5.8698  -27.5925 O.2     1  UNL1       -0.2738
     19 N         -20.6623   -4.4085  -27.0230 N.am    1  UNL1       -0.3036
     20 C         -20.6682   -4.5974  -25.5605 C.3     1  UNL1        0.0914
     21 C         -19.2191   -4.4902  -25.0040 C.3     1  UNL1       -0.0159
     22 C         -18.2865   -5.6089  -25.5619 C.3     1  UNL1        0.0390
     23 C         -18.5395   -7.0045  -25.0024 C.3     1  UNL1       -0.0262
     24 C         -17.1751   -7.6670  -25.0431 C.3     1  UNL1        0.0123
     25 N         -16.2636   -6.5353  -24.9821 N.am    1  UNL1       -0.3151
     26 C         -16.7995   -5.3440  -25.2857 C.2     1  UNL1        0.2162
     27 O         -16.2106   -4.2700  -25.3820 O.2     1  UNL1       -0.2755
     28 C         -21.6508   -3.5541  -24.9947 C.2     1  UNL1        0.2372
     29 O         -22.1980   -2.6718  -25.6656 O.2     1  UNL1       -0.2852
     30 C         -22.0670   -3.7167  -23.4833 C.2     1  UNL1        0.2817
     31 O         -21.2444   -3.8981  -22.5838 O.2     1  UNL1       -0.2670
     32 N         -23.3980   -3.6139  -23.3337 N.am    1  UNL1       -0.3048
     33 C         -24.1318   -3.9123  -22.1045 C.3     1  UNL1        0.0372
     34 C         -24.2987   -5.4047  -21.8163 C.ar    1  UNL1       -0.0303
     35 C         -24.5269   -6.3131  -22.8576 C.ar    1  UNL1       -0.0571
     36 C         -24.6778   -7.6689  -22.5800 C.ar    1  UNL1       -0.0615
     37 C         -24.5975   -8.1171  -21.2631 C.ar    1  UNL1       -0.0617
     38 C         -24.3543   -7.2222  -20.2239 C.ar    1  UNL1       -0.0615
     39 C         -24.1991   -5.8686  -20.5022 C.ar    1  UNL1       -0.0571
     40 H         -24.0987    0.1291  -30.5821 H       1  UNL1        0.0230
     41 H         -22.9994   -0.7640  -29.5460 H       1  UNL1        0.0230
     42 H         -22.4578   -0.2103  -31.1208 H       1  UNL1        0.0230
     43 H         -24.0095   -1.7523  -32.2773 H       1  UNL1        0.0263
     44 H         -24.7647   -2.2115  -30.7813 H       1  UNL1        0.0263
     45 H         -21.8106   -2.7272  -31.3698 H       1  UNL1        0.0266
     46 H         -23.0563   -3.8642  -31.7987 H       1  UNL1        0.0266
     47 H         -23.6290   -4.3578  -29.5559 H       1  UNL1        0.0288
     48 H         -22.9110   -2.9049  -28.9187 H       1  UNL1        0.0288
     49 H         -20.6558   -3.7052  -29.4025 H       1  UNL1        0.0594
     50 H         -21.9294   -5.8266  -30.8542 H       1  UNL1        0.1498
     51 H         -20.8304   -7.1869  -32.0736 H       1  UNL1        0.0669
     52 H         -17.9064   -7.5701  -31.2369 H       1  UNL1        0.0625
     53 H         -20.7133   -8.7400  -33.5725 H       1  UNL1        0.0623
     54 H         -20.3463  -10.3568  -35.3741 H       1  UNL1        0.0618
     55 H         -18.0945  -11.2859  -35.7678 H       1  UNL1        0.0618
     56 H         -16.1918  -10.5907  -34.3571 H       1  UNL1        0.0618
     57 H         -16.5270   -8.9529  -32.5541 H       1  UNL1        0.0623
     58 H         -20.0522   -3.6781  -27.3585 H       1  UNL1        0.1495
     59 H         -21.0532   -5.5918  -25.3224 H       1  UNL1        0.0583
     60 H         -19.2080   -4.5398  -23.9143 H       1  UNL1        0.0295
     61 H         -18.8151   -3.5082  -25.2633 H       1  UNL1        0.0295
     62 H         -18.3585   -5.6247  -26.6499 H       1  UNL1        0.0395
     63 H         -19.2955   -7.5665  -25.5537 H       1  UNL1        0.0288
     64 H         -18.8847   -6.9433  -23.9681 H       1  UNL1        0.0288
     65 H         -17.0105   -8.2253  -25.9668 H       1  UNL1        0.0462
     66 H         -17.0235   -8.3404  -24.1996 H       1  UNL1        0.0462
     67 H         -15.2586   -6.6591  -24.9013 H       1  UNL1        0.1487
     68 H         -23.9650   -3.4759  -24.1645 H       1  UNL1        0.1494
     69 H         -25.1287   -3.4804  -22.1957 H       1  UNL1        0.0512
     70 H         -23.6520   -3.4085  -21.2621 H       1  UNL1        0.0512
     71 H         -24.5975   -5.9698  -23.8797 H       1  UNL1        0.0621
     72 H         -24.8553   -8.3684  -23.3822 H       1  UNL1        0.0618
     73 H         -24.7171   -9.1685  -21.0493 H       1  UNL1        0.0618
     74 H         -24.2835   -7.5789  -19.2069 H       1  UNL1        0.0618
     75 H         -24.0035   -5.1771  -19.6973 H       1  UNL1        0.0621
@<TRIPOS>BOND
     1     1     2    1
     2     1    40    1
     3     1    41    1
     4     1    42    1
     5     2     3    1
     6     2    43    1
     7     2    44    1
     8     3     4    1
     9     3    45    1
    10     3    46    1
    11     4     5    1
    12     4    47    1
    13     4    48    1
    14     5     6    1
    15     5    17    1
    16     5    49    1
    17     6     7   am
    18     6    50    1
    19     7     8    2
    20     7     9    1
    21     9    10    2
    22     9    51    1
    23    10    11    1
    24    10    52    1
    25    11    16   ar
    26    11    12   ar
    27    12    13   ar
    28    12    53    1
    29    13    14   ar
    30    13    54    1
    31    14    15   ar
    32    14    55    1
    33    15    16   ar
    34    15    56    1
    35    16    57    1
    36    17    18    2
    37    17    19   am
    38    19    20    1
    39    19    58    1
    40    20    21    1
    41    20    28    1
    42    20    59    1
    43    21    22    1
    44    21    60    1
    45    21    61    1
    46    22    26    1
    47    22    23    1
    48    22    62    1
    49    23    24    1
    50    23    63    1
    51    23    64    1
    52    24    25    1
    53    24    65    1
    54    24    66    1
    55    25    26   am
    56    25    67    1
    57    26    27    2
    58    28    29    2
    59    28    30    1
    60    30    31    2
    61    30    32   am
    62    32    33    1
    63    32    68    1
    64    33    34    1
    65    33    69    1
    66    33    70    1
    67    34    39   ar
    68    34    35   ar
    69    35    36   ar
    70    35    71    1
    71    36    37   ar
    72    36    72    1
    73    37    38   ar
    74    37    73    1
    75    38    39   ar
    76    38    74    1
    77    39    75    1
