
                    3D
 Schrodinger Suite 2019-4.
 75 77  0  0  1  0            999 V2000
  -23.3110   -0.6218  -30.5817 C   0  0  0  0  0  0
  -23.8085   -1.9265  -31.2210 C   0  0  0  0  0  0
  -22.8029   -3.0805  -31.0827 C   0  0  0  0  0  0
  -22.7715   -3.6903  -29.6643 C   0  0  0  0  0  0
  -21.4604   -4.4419  -29.3363 C   0  0  2  0  0  0
  -21.1492   -5.4860  -30.3155 N   0  0  0  0  0  0
  -19.9606   -6.1004  -30.4316 C   0  0  0  0  0  0
  -18.9982   -5.8417  -29.7051 O   0  0  0  0  0  0
  -19.9173   -7.0530  -31.5154 C   0  0  0  0  0  0
  -18.7971   -7.7371  -31.8298 C   0  0  0  0  0  0
  -18.6431   -8.7198  -32.9240 C   0  0  0  0  0  0
  -19.7185   -9.1257  -33.7285 C   0  0  0  0  0  0
  -19.5193  -10.0475  -34.7532 C   0  0  0  0  0  0
  -18.2483  -10.5718  -34.9739 C   0  0  0  0  0  0
  -17.1737  -10.1805  -34.1805 C   0  0  0  0  0  0
  -17.3703   -9.2537  -33.1601 C   0  0  0  0  0  0
  -21.4983   -4.9917  -27.8969 C   0  0  0  0  0  0
  -22.3049   -5.8698  -27.5925 O   0  0  0  0  0  0
  -20.6623   -4.4085  -27.0230 N   0  0  0  0  0  0
  -20.6682   -4.5974  -25.5605 C   0  0  1  0  0  0
  -19.2191   -4.4902  -25.0040 C   0  0  0  0  0  0
  -18.2865   -5.6089  -25.5619 C   0  0  2  0  0  0
  -18.5395   -7.0045  -25.0024 C   0  0  0  0  0  0
  -17.1751   -7.6670  -25.0431 C   0  0  0  0  0  0
  -16.2636   -6.5353  -24.9821 N   0  0  0  0  0  0
  -16.7995   -5.3440  -25.2857 C   0  0  0  0  0  0
  -16.2106   -4.2700  -25.3820 O   0  0  0  0  0  0
  -21.6508   -3.5541  -24.9947 C   0  0  0  0  0  0
  -22.1980   -2.6718  -25.6656 O   0  0  0  0  0  0
  -22.0670   -3.7167  -23.4833 C   0  0  0  0  0  0
  -21.2444   -3.8981  -22.5838 O   0  0  0  0  0  0
  -23.3980   -3.6139  -23.3337 N   0  0  0  0  0  0
  -24.1318   -3.9123  -22.1045 C   0  0  0  0  0  0
  -24.2987   -5.4047  -21.8163 C   0  0  0  0  0  0
  -24.5269   -6.3131  -22.8576 C   0  0  0  0  0  0
  -24.6778   -7.6689  -22.5800 C   0  0  0  0  0  0
  -24.5975   -8.1171  -21.2631 C   0  0  0  0  0  0
  -24.3543   -7.2222  -20.2239 C   0  0  0  0  0  0
  -24.1991   -5.8686  -20.5022 C   0  0  0  0  0  0
  -24.0987    0.1291  -30.5821 H   0  0  0  0  0  0
  -22.9994   -0.7640  -29.5460 H   0  0  0  0  0  0
  -22.4578   -0.2103  -31.1208 H   0  0  0  0  0  0
  -24.0095   -1.7523  -32.2773 H   0  0  0  0  0  0
  -24.7647   -2.2115  -30.7813 H   0  0  0  0  0  0
  -21.8106   -2.7272  -31.3698 H   0  0  0  0  0  0
  -23.0563   -3.8642  -31.7987 H   0  0  0  0  0  0
  -23.6290   -4.3578  -29.5559 H   0  0  0  0  0  0
  -22.9110   -2.9049  -28.9187 H   0  0  0  0  0  0
  -20.6558   -3.7052  -29.4025 H   0  0  0  0  0  0
  -21.9294   -5.8266  -30.8542 H   0  0  0  0  0  0
  -20.8304   -7.1869  -32.0736 H   0  0  0  0  0  0
  -17.9064   -7.5701  -31.2369 H   0  0  0  0  0  0
  -20.7133   -8.7400  -33.5725 H   0  0  0  0  0  0
  -20.3463  -10.3568  -35.3741 H   0  0  0  0  0  0
  -18.0945  -11.2859  -35.7678 H   0  0  0  0  0  0
  -16.1918  -10.5907  -34.3571 H   0  0  0  0  0  0
  -16.5270   -8.9529  -32.5541 H   0  0  0  0  0  0
  -20.0522   -3.6781  -27.3585 H   0  0  0  0  0  0
  -21.0532   -5.5918  -25.3224 H   0  0  0  0  0  0
  -19.2080   -4.5398  -23.9143 H   0  0  0  0  0  0
  -18.8151   -3.5082  -25.2633 H   0  0  0  0  0  0
  -18.3585   -5.6247  -26.6499 H   0  0  0  0  0  0
  -19.2955   -7.5665  -25.5537 H   0  0  0  0  0  0
  -18.8847   -6.9433  -23.9681 H   0  0  0  0  0  0
  -17.0105   -8.2253  -25.9668 H   0  0  0  0  0  0
  -17.0235   -8.3404  -24.1996 H   0  0  0  0  0  0
  -15.2586   -6.6591  -24.9013 H   0  0  0  0  0  0
  -23.9650   -3.4759  -24.1645 H   0  0  0  0  0  0
  -25.1287   -3.4804  -22.1957 H   0  0  0  0  0  0
  -23.6520   -3.4085  -21.2621 H   0  0  0  0  0  0
  -24.5975   -5.9698  -23.8797 H   0  0  0  0  0  0
  -24.8553   -8.3684  -23.3822 H   0  0  0  0  0  0
  -24.7171   -9.1685  -21.0493 H   0  0  0  0  0  0
  -24.2835   -7.5789  -19.2069 H   0  0  0  0  0  0
  -24.0035   -5.1771  -19.6973 H   0  0  0  0  0  0
  1  2  1  0  0  0
  1 40  1  0  0  0
  1 41  1  0  0  0
  1 42  1  0  0  0
  2  3  1  0  0  0
  2 43  1  0  0  0
  2 44  1  0  0  0
  3  4  1  0  0  0
  3 45  1  0  0  0
  3 46  1  0  0  0
  4  5  1  0  0  0
  4 47  1  0  0  0
  4 48  1  0  0  0
  5  6  1  0  0  0
  5 17  1  0  0  0
  5 49  1  0  0  0
  6  7  1  0  0  0
  6 50  1  0  0  0
  7  8  2  0  0  0
  7  9  1  0  0  0
  9 10  2  0  0  0
  9 51  1  0  0  0
 10 11  1  0  0  0
 10 52  1  0  0  0
 11 16  1  0  0  0
 11 12  2  0  0  0
 12 13  1  0  0  0
 12 53  1  0  0  0
 13 14  2  0  0  0
 13 54  1  0  0  0
 14 15  1  0  0  0
 14 55  1  0  0  0
 15 16  2  0  0  0
 15 56  1  0  0  0
 16 57  1  0  0  0
 17 18  2  0  0  0
 17 19  1  0  0  0
 19 20  1  0  0  0
 19 58  1  0  0  0
 20 21  1  0  0  0
 20 28  1  0  0  0
 20 59  1  0  0  0
 21 22  1  0  0  0
 21 60  1  0  0  0
 21 61  1  0  0  0
 22 26  1  0  0  0
 22 23  1  0  0  0
 22 62  1  0  0  0
 23 24  1  0  0  0
 23 63  1  0  0  0
 23 64  1  0  0  0
 24 25  1  0  0  0
 24 65  1  0  0  0
 24 66  1  0  0  0
 25 26  1  0  0  0
 25 67  1  0  0  0
 26 27  2  0  0  0
 28 29  2  0  0  0
 28 30  1  0  0  0
 30 31  2  0  0  0
 30 32  1  0  0  0
 32 33  1  0  0  0
 32 68  1  0  0  0
 33 34  1  0  0  0
 33 69  1  0  0  0
 33 70  1  0  0  0
 34 39  1  0  0  0
 34 35  2  0  0  0
 35 36  1  0  0  0
 35 71  1  0  0  0
 36 37  2  0  0  0
 36 72  1  0  0  0
 37 38  1  0  0  0
 37 73  1  0  0  0
 38 39  2  0  0  0
 38 74  1  0  0  0
 39 75  1  0  0  0
M  END
$$$$
