@<TRIPOS>MOLECULE
*****
 32 34 0 0 0
SMALL
GASTEIGER
****
Schrodinger Suite 2019-4.
@<TRIPOS>ATOM
      1 O         -19.8586   -5.0884  -29.2168 O.2     1  UNL1       -0.2830
      2 C         -20.9221   -4.6508  -28.7710 C.ar    1  UNL1        0.2379
      3 C         -22.0505   -4.3481  -29.6682 C.ar    1  UNL1        0.2082
      4 O         -21.8337   -4.5997  -30.9676 O.3     1  UNL1       -0.5007
      5 C         -23.2360   -3.9049  -29.1811 C.ar    1  UNL1        0.1807
      6 C         -24.4263   -3.5671  -29.9891 C.ar    1  UNL1        0.0247
      7 C         -24.3574   -3.0956  -31.3216 C.ar    1  UNL1       -0.0473
      8 C         -25.5372   -2.7847  -32.0215 C.ar    1  UNL1       -0.0159
      9 C         -26.7901   -2.9171  -31.3981 C.ar    1  UNL1        0.1583
     10 O         -27.9193   -2.5663  -32.0760 O.3     1  UNL1       -0.5033
     11 C         -26.8619   -3.4048  -30.0771 C.ar    1  UNL1        0.1589
     12 O         -28.0586   -3.5744  -29.4535 O.3     1  UNL1       -0.5033
     13 C         -25.6875   -3.7280  -29.3805 C.ar    1  UNL1       -0.0057
     14 O         -23.4156   -3.6714  -27.8366 O.2     1  UNL1       -0.4507
     15 C         -22.4285   -3.9518  -26.9258 C.ar    1  UNL1        0.1465
     16 C         -22.7229   -3.7488  -25.5648 C.ar    1  UNL1        0.0231
     17 C         -21.7419   -3.9769  -24.5846 C.ar    1  UNL1        0.1239
     18 O         -22.0275   -3.7475  -23.2711 O.3     1  UNL1       -0.5065
     19 C         -20.4602   -4.4136  -24.9676 C.ar    1  UNL1        0.0223
     20 C         -20.1600   -4.6361  -26.3271 C.ar    1  UNL1        0.1348
     21 O         -18.8997   -5.0550  -26.6473 O.3     1  UNL1       -0.5058
     22 C         -21.1525   -4.4145  -27.3198 C.ar    1  UNL1        0.1092
     23 H         -20.9921   -5.0281  -31.0297 H       1  UNL1        0.2924
     24 H         -23.4120   -2.9433  -31.8183 H       1  UNL1        0.0626
     25 H         -25.4778   -2.4278  -33.0359 H       1  UNL1        0.0655
     26 H         -27.9576   -2.9206  -32.9508 H       1  UNL1        0.2923
     27 H         -28.2270   -4.4688  -29.1985 H       1  UNL1        0.2923
     28 H         -25.7616   -4.0997  -28.3688 H       1  UNL1        0.0662
     29 H         -23.7041   -3.3981  -25.2801 H       1  UNL1        0.0691
     30 H         -22.9288   -3.5014  -23.1259 H       1  UNL1        0.2921
     31 H         -19.6984   -4.5665  -24.2175 H       1  UNL1        0.0691
     32 H         -18.9080   -5.8748  -27.1216 H       1  UNL1        0.2922
@<TRIPOS>BOND
     1     1     2    2
     2     2    22   ar
     3     2     3   ar
     4     3     4    1
     5     3     5   ar
     6     4    23    1
     7     5     6    1
     8     5    14   ar
     9     6    13   ar
    10     6     7   ar
    11     7     8   ar
    12     7    24    1
    13     8     9   ar
    14     8    25    1
    15     9    10    1
    16     9    11   ar
    17    10    26    1
    18    11    12    1
    19    11    13   ar
    20    12    27    1
    21    13    28    1
    22    14    15   ar
    23    15    22   ar
    24    15    16   ar
    25    16    17   ar
    26    16    29    1
    27    17    18    1
    28    17    19   ar
    29    18    30    1
    30    19    20   ar
    31    19    31    1
    32    20    21    1
    33    20    22   ar
    34    21    32    1
