
                    3D
 Schrodinger Suite 2019-4.
 32 34  0  0  1  0            999 V2000
  -19.8586   -5.0884  -29.2168 O   0  0  0  0  0  0
  -20.9221   -4.6508  -28.7710 C   0  0  0  0  0  0
  -22.0505   -4.3481  -29.6682 C   0  0  0  0  0  0
  -21.8337   -4.5997  -30.9676 O   0  0  0  0  0  0
  -23.2360   -3.9049  -29.1811 C   0  0  0  0  0  0
  -24.4263   -3.5671  -29.9891 C   0  0  0  0  0  0
  -24.3574   -3.0956  -31.3216 C   0  0  0  0  0  0
  -25.5372   -2.7847  -32.0215 C   0  0  0  0  0  0
  -26.7901   -2.9171  -31.3981 C   0  0  0  0  0  0
  -27.9193   -2.5663  -32.0760 O   0  0  0  0  0  0
  -26.8619   -3.4048  -30.0771 C   0  0  0  0  0  0
  -28.0586   -3.5744  -29.4535 O   0  0  0  0  0  0
  -25.6875   -3.7280  -29.3805 C   0  0  0  0  0  0
  -23.4156   -3.6714  -27.8366 O   0  0  0  0  0  0
  -22.4285   -3.9518  -26.9258 C   0  0  0  0  0  0
  -22.7229   -3.7488  -25.5648 C   0  0  0  0  0  0
  -21.7419   -3.9769  -24.5846 C   0  0  0  0  0  0
  -22.0275   -3.7475  -23.2711 O   0  0  0  0  0  0
  -20.4602   -4.4136  -24.9676 C   0  0  0  0  0  0
  -20.1600   -4.6361  -26.3271 C   0  0  0  0  0  0
  -18.8997   -5.0550  -26.6473 O   0  0  0  0  0  0
  -21.1525   -4.4145  -27.3198 C   0  0  0  0  0  0
  -20.9921   -5.0281  -31.0297 H   0  0  0  0  0  0
  -23.4120   -2.9433  -31.8183 H   0  0  0  0  0  0
  -25.4778   -2.4278  -33.0359 H   0  0  0  0  0  0
  -27.9576   -2.9206  -32.9508 H   0  0  0  0  0  0
  -28.2270   -4.4688  -29.1985 H   0  0  0  0  0  0
  -25.7616   -4.0997  -28.3688 H   0  0  0  0  0  0
  -23.7041   -3.3981  -25.2801 H   0  0  0  0  0  0
  -22.9288   -3.5014  -23.1259 H   0  0  0  0  0  0
  -19.6984   -4.5665  -24.2175 H   0  0  0  0  0  0
  -18.9080   -5.8748  -27.1216 H   0  0  0  0  0  0
  1  2  2  0  0  0
  2 22  1  0  0  0
  2  3  1  0  0  0
  3  4  1  0  0  0
  3  5  2  0  0  0
  4 23  1  0  0  0
  5  6  1  0  0  0
  5 14  1  0  0  0
  6 13  1  0  0  0
  6  7  2  0  0  0
  7  8  1  0  0  0
  7 24  1  0  0  0
  8  9  2  0  0  0
  8 25  1  0  0  0
  9 10  1  0  0  0
  9 11  1  0  0  0
 10 26  1  0  0  0
 11 12  1  0  0  0
 11 13  2  0  0  0
 12 27  1  0  0  0
 13 28  1  0  0  0
 14 15  1  0  0  0
 15 22  2  0  0  0
 15 16  1  0  0  0
 16 17  2  0  0  0
 16 29  1  0  0  0
 17 18  1  0  0  0
 17 19  1  0  0  0
 18 30  1  0  0  0
 19 20  2  0  0  0
 19 31  1  0  0  0
 20 21  1  0  0  0
 20 22  1  0  0  0
 21 32  1  0  0  0
M  END
$$$$
