@<TRIPOS>MOLECULE
/home/lixiaoshuang.lxs/med/data/m_pro/PDB_BA/2alv/2alv_ligand.pdb
 40 41 0 0 0
SMALL
GASTEIGER

@<TRIPOS>ATOM
      1  C5        73.3760   47.7140   18.4330 C.3   1145  CY61145     0.0754
      2  C6        72.8930   46.2990   18.6050 C.ar  1145  CY61145     0.1550
      3  O7        71.9590   45.8240   17.7670 O.2   1145  CY61145    -0.3576
      4  N8        71.7080   44.4820   18.1770 N.ar  1145  CY61145    -0.0726
      5  C9        72.4860   44.2900   19.1810 C.ar  1145  CY61145     0.1774
      6  C10       73.3040   45.4570   19.5210 C.ar  1145  CY61145     0.0627
      7  C11       72.5940   43.0470   19.9540 C.2   1145  CY61145     0.2862
      8  O12       73.0910   42.0800   19.3140 O.2   1145  CY61145    -0.2666
      9  N13       72.2270   42.9390   21.2720 N.am  1145  CY61145    -0.1945
     10  C14       72.3260   41.7740   22.1820 C.3   1145  CY61145     0.1526
     11  C15       72.1330   42.1430   23.7530 C.3   1145  CY61145     0.0272
     12  C16       72.2900   40.9620   24.7780 C.3   1145  CY61145     0.0022
     13  C17       70.7360   42.8150   24.0190 C.3   1145  CY61145     0.0022
     14  C18       71.3590   40.6490   21.7020 C.2   1145  CY61145     0.1707
     15  O19       70.1250   40.8390   21.5470 O.2   1145  CY61145    -0.2943
     16  C20       72.0130   39.2830   21.4870 C.3   1145  CY61145     0.0754
     17  C21       71.1410   38.0200   21.0920 C.3   1145  CY61145     0.0856
     18  C22       72.1390   36.8100   20.9160 C.3   1145  CY61145     0.0096
     19  C23       73.0630   37.0400   19.7340 C.3   1145  CY61145     0.0005
     20  C24       74.1020   36.0980   19.3790 C.3   1145  CY61145     0.0000
     21  C25       74.6740   36.1150   18.0000 C.3   1145  CY61145     0.0000
     22  C26       74.6400   35.1100   20.3920 C.3   1145  CY61145     0.0000
     23  C29       70.2140   37.7990   22.3190 C.2   1145  CY61145     0.2413
     24  O30       70.7080   38.0510   23.4970 O.2   1145  CY61145    -0.2733
     25  N31       68.9190   37.3770   22.1920 N.am  1145  CY61145    -0.2072
     26  C32       68.1000   37.2110   23.3980 C.3   1145  CY61145     0.0963
     27  C33       67.5730   35.8690   23.8530 C.3   1145  CY61145     0.0333
     28  C34       68.8440   35.0260   24.2700 C.3   1145  CY61145     0.1113
     29  C35       68.5470   33.6490   24.9040 C.2   1145  CY61145     0.3170
     30  O36       67.3640   33.2810   25.0880 O.2   1145  CY61145    -0.2501
     31  O37       69.5250   32.7600   25.3300 O.3   1145  CY61145    -0.4485
     32  C38       70.3680   33.0850   26.4740 C.3   1145  CY61145     0.2086
     33  C39       69.8230   32.5050   27.8090 C.3   1145  CY61145     0.0513
     34  C40       66.8980   38.2280   23.3800 C.3   1145  CY61145     0.0309
     35  C41       66.9220   39.3590   24.4470 C.3   1145  CY61145     0.0817
     36  C42       67.1800   39.0330   25.9450 C.3   1145  CY61145     0.0326
     37  C43       66.7700   40.3700   26.6240 C.3   1145  CY61145     0.1156
     38  N44       65.6080   40.7100   25.7960 N.am  1145  CY61145    -0.2054
     39  C45       65.6540   40.1510   24.5640 C.2   1145  CY61145     0.2410
     40  O46       64.8130   40.2570   23.6380 O.2   1145  CY61145    -0.2734
@<TRIPOS>BOND
     1     3     4   ar
     2     3     2   ar
     3    21    20    1
     4     4     5   ar
     5     1     2    1
     6     2     6   ar
     7     5     6   ar
     8     5     7    1
     9     8     7    2
    10    20    19    1
    11    20    22    1
    12    19    18    1
    13     7     9   am
    14    18    17    1
    15    17    16    1
    16    17    23    1
    17     9    10    1
    18    16    14    1
    19    15    14    2
    20    14    10    1
    21    10    11    1
    22    25    23   am
    23    25    26    1
    24    23    24    2
    25    34    26    1
    26    34    35    1
    27    26    27    1
    28    40    39    2
    29    11    13    1
    30    11    12    1
    31    27    28    1
    32    28    29    1
    33    35    39    1
    34    35    36    1
    35    39    38   am
    36    29    30    2
    37    29    31    1
    38    31    32    1
    39    38    37    1
    40    36    37    1
    41    32    33    1
