@<TRIPOS>MOLECULE
*****
 56 56 0 0 0
SMALL
GASTEIGER
****
Schrodinger Suite 2019-4.
@<TRIPOS>ATOM
      1 C         -23.6996   -3.3449  -22.1990 C.3     1  LEU1       -0.0653
      2 C         -23.9061   -2.7750  -23.6137 C.3     1  LEU1       -0.0558
      3 C         -23.1317   -3.5311  -24.7122 C.3     1  LEU1       -0.0512
      4 C         -21.6291   -3.1966  -24.7148 C.3     1  LEU1       -0.0279
      5 CA        -20.7696   -4.0872  -25.6313 C.3     1  LEU1        0.0785
      6 C         -19.2821   -3.8496  -25.4562 C.2     1  LEU1        0.1404
      7 O         -18.8053   -3.2945  -24.4646 O.2     1  LEU1       -0.2991
      8 N         -21.0145   -3.8128  -27.0463 N.am    1  LEU1       -0.3044
      9 C         -21.7219   -4.6031  -27.8658 C.2     1  LEU1        0.2340
     10 O         -22.2551   -5.6591  -27.5131 O.2     1  LEU1       -0.2738
     11 CA        -21.8149   -4.1380  -29.3419 C.3     1  LEU1        0.1027
     12 CB        -23.2184   -3.5475  -29.6584 C.3     1  LEU1       -0.0235
     13 CG        -23.2794   -2.6119  -30.8936 C.3     1  LEU1       -0.0446
     14 CD1       -24.6145   -1.8331  -30.9300 C.3     1  LEU1       -0.0626
     15 CD2       -23.0116   -3.3410  -32.2257 C.3     1  LEU1       -0.0626
     16 N         -21.5128   -5.2585  -30.2503 N.am    1  LEU1       -0.2698
     17 C         -20.2197   -5.7606  -30.3172 C.2     0  UNK0        0.4012
     18 O         -19.2054   -5.2205  -29.8673 O.2     0  UNK0       -0.2265
     19 O         -20.2612   -6.9914  -30.8619 O.3     0  UNK0       -0.4456
     20 C         -19.0813   -7.7655  -31.1060 C.3     0  UNK0        0.1191
     21 C         -18.3273   -8.2611  -29.8607 C.ar    0  UNK0       -0.0103
     22 C         -18.7566   -8.0200  -28.5445 C.ar    0  UNK0       -0.0554
     23 C         -18.0047   -8.4830  -27.4645 C.ar    0  UNK0       -0.0614
     24 C         -16.8364   -9.2060  -27.6963 C.ar    0  UNK0       -0.0617
     25 C         -16.4058   -9.4564  -28.9967 C.ar    0  UNK0       -0.0614
     26 C         -17.1486   -8.9820  -30.0745 C.ar    0  UNK0       -0.0554
     27 H         -24.3154   -2.8208  -21.4702 H       1  LEU1        0.0230
     28 H         -23.9773   -4.3986  -22.1527 H       1  LEU1        0.0230
     29 H         -22.6629   -3.2580  -21.8729 H       1  LEU1        0.0230
     30 H         -23.6147   -1.7221  -23.6322 H       1  LEU1        0.0263
     31 H         -24.9708   -2.7979  -23.8505 H       1  LEU1        0.0263
     32 H         -23.5484   -3.2632  -25.6855 H       1  LEU1        0.0266
     33 H         -23.2787   -4.6068  -24.6026 H       1  LEU1        0.0266
     34 H         -21.2553   -3.2452  -23.6920 H       1  LEU1        0.0287
     35 H         -21.5180   -2.1681  -25.0682 H       1  LEU1        0.0287
     36 HA        -20.9580   -5.1361  -25.3880 H       1  LEU1        0.0574
     37 H         -18.6451   -4.2332  -26.2545 H       1  LEU1        0.1046
     38 H         -20.6922   -2.9180  -27.3953 H       1  LEU1        0.1494
     39 HA        -21.0892   -3.3335  -29.4904 H       1  LEU1        0.0596
     40 HB1       -23.5332   -2.9445  -28.8013 H       1  LEU1        0.0290
     41 HB2       -23.9693   -4.3367  -29.7318 H       1  LEU1        0.0290
     42 HG        -22.4929   -1.8641  -30.7783 H       1  LEU1        0.0296
     43 HD11      -25.1594   -1.9672  -31.8652 H       1  LEU1        0.0232
     44 HD12      -25.2899   -2.1351  -30.1275 H       1  LEU1        0.0232
     45 HD13      -24.4408   -0.7625  -30.8109 H       1  LEU1        0.0232
     46 HD21      -23.5080   -2.8592  -33.0672 H       1  LEU1        0.0232
     47 HD22      -21.9441   -3.3472  -32.4513 H       1  LEU1        0.0232
     48 HD23      -23.3503   -4.3775  -32.1931 H       1  LEU1        0.0232
     49 H         -22.2723   -5.8356  -30.5768 H       1  LEU1        0.1528
     50 H         -18.4041   -7.1940  -31.7399 H       0  UNK0        0.0749
     51 H         -19.3800   -8.6431  -31.6796 H       0  UNK0        0.0749
     52 H         -19.6685   -7.4816  -28.3384 H       0  UNK0        0.0621
     53 H         -18.3289   -8.2847  -26.4519 H       0  UNK0        0.0618
     54 H         -16.2410   -9.5544  -26.8620 H       0  UNK0        0.0618
     55 H         -15.4807   -9.9952  -29.1614 H       0  UNK0        0.0618
     56 H         -16.7923   -9.1639  -31.0787 H       0  UNK0        0.0621
@<TRIPOS>BOND
     1     1     2    1
     2     1    27    1
     3     1    28    1
     4     1    29    1
     5     2     3    1
     6     2    30    1
     7     2    31    1
     8     3     4    1
     9     3    32    1
    10     3    33    1
    11     4     5    1
    12     4    34    1
    13     4    35    1
    14     5     6    1
    15     5     8    1
    16     5    36    1
    17     6     7    2
    18     6    37    1
    19     8     9   am
    20     8    38    1
    21     9    10    2
    22     9    11    1
    23    11    12    1
    24    11    16    1
    25    11    39    1
    26    12    13    1
    27    12    40    1
    28    12    41    1
    29    13    14    1
    30    13    15    1
    31    13    42    1
    32    14    43    1
    33    14    44    1
    34    14    45    1
    35    15    46    1
    36    15    47    1
    37    15    48    1
    38    16    17   am
    39    16    49    1
    40    17    18    2
    41    17    19    1
    42    19    20    1
    43    20    21    1
    44    20    50    1
    45    20    51    1
    46    21    26   ar
    47    21    22   ar
    48    22    23   ar
    49    22    52    1
    50    23    24   ar
    51    23    53    1
    52    24    25   ar
    53    24    54    1
    54    25    26   ar
    55    25    55    1
    56    26    56    1
