
                    3D
 Schrodinger Suite 2019-4.
 56 56  0  0  1  0            999 V2000
  -23.6996   -3.3449  -22.1990 C   0  0  0  0  0  0
  -23.9061   -2.7750  -23.6137 C   0  0  0  0  0  0
  -23.1317   -3.5311  -24.7122 C   0  0  0  0  0  0
  -21.6291   -3.1966  -24.7148 C   0  0  0  0  0  0
  -20.7696   -4.0872  -25.6313 C   0  0  2  0  0  0
  -19.2821   -3.8496  -25.4562 C   0  0  0  0  0  0
  -18.8053   -3.2945  -24.4646 O   0  0  0  0  0  0
  -21.0145   -3.8128  -27.0463 N   0  0  0  0  0  0
  -21.7219   -4.6031  -27.8658 C   0  0  0  0  0  0
  -22.2551   -5.6591  -27.5131 O   0  0  0  0  0  0
  -21.8149   -4.1380  -29.3419 C   0  0  2  0  0  0
  -23.2184   -3.5475  -29.6584 C   0  0  0  0  0  0
  -23.2794   -2.6119  -30.8936 C   0  0  0  0  0  0
  -24.6145   -1.8331  -30.9300 C   0  0  0  0  0  0
  -23.0116   -3.3410  -32.2257 C   0  0  0  0  0  0
  -21.5128   -5.2585  -30.2503 N   0  0  0  0  0  0
  -20.2197   -5.7606  -30.3172 C   0  0  0  0  0  0
  -19.2054   -5.2205  -29.8673 O   0  0  0  0  0  0
  -20.2612   -6.9914  -30.8619 O   0  0  0  0  0  0
  -19.0813   -7.7655  -31.1060 C   0  0  0  0  0  0
  -18.3273   -8.2611  -29.8607 C   0  0  0  0  0  0
  -18.7566   -8.0200  -28.5445 C   0  0  0  0  0  0
  -18.0047   -8.4830  -27.4645 C   0  0  0  0  0  0
  -16.8364   -9.2060  -27.6963 C   0  0  0  0  0  0
  -16.4058   -9.4564  -28.9967 C   0  0  0  0  0  0
  -17.1486   -8.9820  -30.0745 C   0  0  0  0  0  0
  -24.3154   -2.8208  -21.4702 H   0  0  0  0  0  0
  -23.9773   -4.3986  -22.1527 H   0  0  0  0  0  0
  -22.6629   -3.2580  -21.8729 H   0  0  0  0  0  0
  -23.6147   -1.7221  -23.6322 H   0  0  0  0  0  0
  -24.9708   -2.7979  -23.8505 H   0  0  0  0  0  0
  -23.5484   -3.2632  -25.6855 H   0  0  0  0  0  0
  -23.2787   -4.6068  -24.6026 H   0  0  0  0  0  0
  -21.2553   -3.2452  -23.6920 H   0  0  0  0  0  0
  -21.5180   -2.1681  -25.0682 H   0  0  0  0  0  0
  -20.9580   -5.1361  -25.3880 H   0  0  0  0  0  0
  -18.6451   -4.2332  -26.2545 H   0  0  0  0  0  0
  -20.6922   -2.9180  -27.3953 H   0  0  0  0  0  0
  -21.0892   -3.3335  -29.4904 H   0  0  0  0  0  0
  -23.5332   -2.9445  -28.8013 H   0  0  0  0  0  0
  -23.9693   -4.3367  -29.7318 H   0  0  0  0  0  0
  -22.4929   -1.8641  -30.7783 H   0  0  0  0  0  0
  -25.1594   -1.9672  -31.8652 H   0  0  0  0  0  0
  -25.2899   -2.1351  -30.1275 H   0  0  0  0  0  0
  -24.4408   -0.7625  -30.8109 H   0  0  0  0  0  0
  -23.5080   -2.8592  -33.0672 H   0  0  0  0  0  0
  -21.9441   -3.3472  -32.4513 H   0  0  0  0  0  0
  -23.3503   -4.3775  -32.1931 H   0  0  0  0  0  0
  -22.2723   -5.8356  -30.5768 H   0  0  0  0  0  0
  -18.4041   -7.1940  -31.7399 H   0  0  0  0  0  0
  -19.3800   -8.6431  -31.6796 H   0  0  0  0  0  0
  -19.6685   -7.4816  -28.3384 H   0  0  0  0  0  0
  -18.3289   -8.2847  -26.4519 H   0  0  0  0  0  0
  -16.2410   -9.5544  -26.8620 H   0  0  0  0  0  0
  -15.4807   -9.9952  -29.1614 H   0  0  0  0  0  0
  -16.7923   -9.1639  -31.0787 H   0  0  0  0  0  0
  1  2  1  0  0  0
  1 27  1  0  0  0
  1 28  1  0  0  0
  1 29  1  0  0  0
  2  3  1  0  0  0
  2 30  1  0  0  0
  2 31  1  0  0  0
  3  4  1  0  0  0
  3 32  1  0  0  0
  3 33  1  0  0  0
  4  5  1  0  0  0
  4 34  1  0  0  0
  4 35  1  0  0  0
  5  6  1  0  0  0
  5  8  1  0  0  0
  5 36  1  0  0  0
  6  7  2  0  0  0
  6 37  1  0  0  0
  8  9  1  0  0  0
  8 38  1  0  0  0
  9 10  2  0  0  0
  9 11  1  0  0  0
 11 12  1  0  0  0
 11 16  1  0  0  0
 11 39  1  0  0  0
 12 13  1  0  0  0
 12 40  1  0  0  0
 12 41  1  0  0  0
 13 14  1  0  0  0
 13 15  1  0  0  0
 13 42  1  0  0  0
 14 43  1  0  0  0
 14 44  1  0  0  0
 14 45  1  0  0  0
 15 46  1  0  0  0
 15 47  1  0  0  0
 15 48  1  0  0  0
 16 17  1  0  0  0
 16 49  1  0  0  0
 17 18  2  0  0  0
 17 19  1  0  0  0
 19 20  1  0  0  0
 20 21  1  0  0  0
 20 50  1  0  0  0
 20 51  1  0  0  0
 21 26  1  0  0  0
 21 22  2  0  0  0
 22 23  1  0  0  0
 22 52  1  0  0  0
 23 24  2  0  0  0
 23 53  1  0  0  0
 24 25  1  0  0  0
 24 54  1  0  0  0
 25 26  2  0  0  0
 25 55  1  0  0  0
 26 56  1  0  0  0
M  END
$$$$
