
                    3D
 Schrodinger Suite 2019-4.
 68 70  0  0  1  0            999 V2000
  -19.0629   -5.3869  -28.7663 O   0  0  0  0  0  0
  -19.6934   -5.8999  -29.6931 C   0  0  0  0  0  0
  -20.9772   -5.6080  -29.9559 N   0  0  0  0  0  0
  -21.7862   -4.6669  -29.1809 C   0  0  1  0  0  0
  -23.1860   -4.4989  -29.8052 C   0  0  0  0  0  0
  -23.1291   -3.9499  -31.1645 C   0  0  0  0  0  0
  -22.9668   -3.4696  -32.2725 C   0  0  0  0  0  0
  -21.9388   -5.1460  -27.7378 C   0  0  0  0  0  0
  -22.8494   -5.9086  -27.4128 O   0  0  0  0  0  0
  -21.0325   -4.6636  -26.8850 N   0  0  0  0  0  0
  -21.0957   -4.7948  -25.4379 C   0  0  1  0  0  0
  -19.6743   -4.4953  -24.8949 C   0  0  0  0  0  0
  -18.6452   -5.5094  -25.4550 C   0  0  2  0  0  0
  -18.8921   -6.9585  -25.0080 C   0  0  0  0  0  0
  -17.5045   -7.5699  -24.7812 C   0  0  0  0  0  0
  -16.6287   -6.4255  -24.6583 N   0  0  0  0  0  0
  -17.2049   -5.2827  -25.0184 C   0  0  0  0  0  0
  -16.6468   -4.1934  -25.0468 O   0  0  0  0  0  0
  -22.1635   -3.7935  -24.9503 C   0  0  0  0  0  0
  -22.9108   -3.1893  -25.7178 O   0  0  0  0  0  0
  -22.3740   -3.6390  -23.4516 C   0  0  0  0  0  0
  -21.4652   -3.7244  -22.6295 O   0  0  0  0  0  0
  -23.6702   -3.4368  -23.1818 N   0  0  0  0  0  0
  -24.2882   -3.5972  -21.8799 C   0  0  0  0  0  0
  -24.7708   -5.0177  -21.6109 C   0  0  0  0  0  0
  -25.7672   -5.5671  -22.4419 C   0  0  0  0  0  0
  -26.2124   -6.8878  -22.2421 C   0  0  0  0  0  0
  -25.6649   -7.6698  -21.2073 C   0  0  0  0  0  0
  -24.6787   -7.1266  -20.3641 C   0  0  0  0  0  0
  -24.2279   -5.8100  -20.5692 C   0  0  0  0  0  0
  -19.1723   -6.8761  -30.6267 C   0  0  0  0  0  0
  -19.8646   -7.1660  -31.7441 C   0  0  0  0  0  0
  -19.4838   -8.1405  -32.7727 C   0  0  0  0  0  0
  -18.1350   -8.5506  -32.8430 C   0  0  0  0  0  0
  -17.7166   -9.4637  -33.8288 C   0  0  0  0  0  0
  -18.6460   -9.9722  -34.7555 C   0  0  0  0  0  0
  -19.9914   -9.5624  -34.6992 C   0  0  0  0  0  0
  -20.4085   -8.6479  -33.7141 C   0  0  0  0  0  0
  -21.4301   -6.0780  -30.7256 H   0  0  0  0  0  0
  -21.2794   -3.7033  -29.1828 H   0  0  0  0  0  0
  -23.7900   -3.8092  -29.2126 H   0  0  0  0  0  0
  -23.7233   -5.4480  -29.8443 H   0  0  0  0  0  0
  -22.7363   -3.0442  -33.2177 H   0  0  0  0  0  0
  -20.3271   -4.0413  -27.2540 H   0  0  0  0  0  0
  -21.4039   -5.7993  -25.1433 H   0  0  0  0  0  0
  -19.6524   -4.5435  -23.8063 H   0  0  0  0  0  0
  -19.3703   -3.4826  -25.1608 H   0  0  0  0  0  0
  -18.6293   -5.4679  -26.5451 H   0  0  0  0  0  0
  -19.4713   -7.5234  -25.7395 H   0  0  0  0  0  0
  -19.4478   -6.9695  -24.0698 H   0  0  0  0  0  0
  -17.1895   -8.1698  -25.6359 H   0  0  0  0  0  0
  -17.4706   -8.1929  -23.8865 H   0  0  0  0  0  0
  -15.6585   -6.5065  -24.3796 H   0  0  0  0  0  0
  -24.2996   -3.3551  -23.9706 H   0  0  0  0  0  0
  -25.1470   -2.9275  -21.8278 H   0  0  0  0  0  0
  -23.5989   -3.2729  -21.1032 H   0  0  0  0  0  0
  -26.1850   -4.9777  -23.2439 H   0  0  0  0  0  0
  -26.9734   -7.3034  -22.8860 H   0  0  0  0  0  0
  -26.0071   -8.6830  -21.0548 H   0  0  0  0  0  0
  -24.2603   -7.7221  -19.5660 H   0  0  0  0  0  0
  -23.4516   -5.4323  -19.9216 H   0  0  0  0  0  0
  -18.2373   -7.3701  -30.4102 H   0  0  0  0  0  0
  -20.7919   -6.6431  -31.9345 H   0  0  0  0  0  0
  -17.4101   -8.1584  -32.1439 H   0  0  0  0  0  0
  -16.6814   -9.7690  -33.8768 H   0  0  0  0  0  0
  -18.3249  -10.6708  -35.5139 H   0  0  0  0  0  0
  -20.7042   -9.9471  -35.4136 H   0  0  0  0  0  0
  -21.4457   -8.3529  -33.6917 H   0  0  0  0  0  0
  1  2  2  0  0  0
  2  3  1  0  0  0
  2 31  1  0  0  0
  3  4  1  0  0  0
  3 39  1  0  0  0
  4  5  1  0  0  0
  4  8  1  0  0  0
  4 40  1  0  0  0
  5  6  1  0  0  0
  5 41  1  0  0  0
  5 42  1  0  0  0
  6  7  3  0  0  0
  7 43  1  0  0  0
  8  9  2  0  0  0
  8 10  1  0  0  0
 10 11  1  0  0  0
 10 44  1  0  0  0
 11 12  1  0  0  0
 11 19  1  0  0  0
 11 45  1  0  0  0
 12 13  1  0  0  0
 12 46  1  0  0  0
 12 47  1  0  0  0
 13 17  1  0  0  0
 13 14  1  0  0  0
 13 48  1  0  0  0
 14 15  1  0  0  0
 14 49  1  0  0  0
 14 50  1  0  0  0
 15 16  1  0  0  0
 15 51  1  0  0  0
 15 52  1  0  0  0
 16 17  1  0  0  0
 16 53  1  0  0  0
 17 18  2  0  0  0
 19 20  2  0  0  0
 19 21  1  0  0  0
 21 22  2  0  0  0
 21 23  1  0  0  0
 23 24  1  0  0  0
 23 54  1  0  0  0
 24 25  1  0  0  0
 24 55  1  0  0  0
 24 56  1  0  0  0
 25 30  1  0  0  0
 25 26  2  0  0  0
 26 27  1  0  0  0
 26 57  1  0  0  0
 27 28  2  0  0  0
 27 58  1  0  0  0
 28 29  1  0  0  0
 28 59  1  0  0  0
 29 30  2  0  0  0
 29 60  1  0  0  0
 30 61  1  0  0  0
 31 32  2  0  0  0
 31 62  1  0  0  0
 32 33  1  0  0  0
 32 63  1  0  0  0
 33 38  1  0  0  0
 33 34  2  0  0  0
 34 35  1  0  0  0
 34 64  1  0  0  0
 35 36  2  0  0  0
 35 65  1  0  0  0
 36 37  1  0  0  0
 36 66  1  0  0  0
 37 38  2  0  0  0
 37 67  1  0  0  0
 38 68  1  0  0  0
M  END
$$$$
