@<TRIPOS>MOLECULE
*****
 68 70 0 0 0
SMALL
GASTEIGER
****
Schrodinger Suite 2019-4.
@<TRIPOS>ATOM
      1 O         -19.0629   -5.3869  -28.7663 O.2     1  UNL1       -0.2708
      2 C         -19.6934   -5.8999  -29.6931 C.2     1  UNL1        0.2375
      3 N         -20.9772   -5.6080  -29.9559 N.am    1  UNL1       -0.2996
      4 C         -21.7862   -4.6669  -29.1809 C.3     1  UNL1        0.1104
      5 C         -23.1860   -4.4989  -29.8052 C.3     1  UNL1        0.0358
      6 C         -23.1291   -3.9499  -31.1645 C.1     1  UNL1       -0.1033
      7 C         -22.9668   -3.4696  -32.2725 C.1     1  UNL1       -0.1191
      8 C         -21.9388   -5.1460  -27.7378 C.2     1  UNL1        0.2348
      9 O         -22.8494   -5.9086  -27.4128 O.2     1  UNL1       -0.2737
     10 N         -21.0325   -4.6636  -26.8850 N.am    1  UNL1       -0.3036
     11 C         -21.0957   -4.7948  -25.4379 C.3     1  UNL1        0.0914
     12 C         -19.6743   -4.4953  -24.8949 C.3     1  UNL1       -0.0159
     13 C         -18.6452   -5.5094  -25.4550 C.3     1  UNL1        0.0390
     14 C         -18.8921   -6.9585  -25.0080 C.3     1  UNL1       -0.0262
     15 C         -17.5045   -7.5699  -24.7812 C.3     1  UNL1        0.0123
     16 N         -16.6287   -6.4255  -24.6583 N.am    1  UNL1       -0.3151
     17 C         -17.2049   -5.2827  -25.0184 C.2     1  UNL1        0.2162
     18 O         -16.6468   -4.1934  -25.0468 O.2     1  UNL1       -0.2755
     19 C         -22.1635   -3.7935  -24.9503 C.2     1  UNL1        0.2372
     20 O         -22.9108   -3.1893  -25.7178 O.2     1  UNL1       -0.2852
     21 C         -22.3740   -3.6390  -23.4516 C.2     1  UNL1        0.2817
     22 O         -21.4652   -3.7244  -22.6295 O.2     1  UNL1       -0.2670
     23 N         -23.6702   -3.4368  -23.1818 N.am    1  UNL1       -0.3048
     24 C         -24.2882   -3.5972  -21.8799 C.3     1  UNL1        0.0372
     25 C         -24.7708   -5.0177  -21.6109 C.ar    1  UNL1       -0.0303
     26 C         -25.7672   -5.5671  -22.4419 C.ar    1  UNL1       -0.0571
     27 C         -26.2124   -6.8878  -22.2421 C.ar    1  UNL1       -0.0615
     28 C         -25.6649   -7.6698  -21.2073 C.ar    1  UNL1       -0.0617
     29 C         -24.6787   -7.1266  -20.3641 C.ar    1  UNL1       -0.0615
     30 C         -24.2279   -5.8100  -20.5692 C.ar    1  UNL1       -0.0571
     31 C         -19.1723   -6.8761  -30.6267 C.2     1  UNL1        0.0007
     32 C         -19.8646   -7.1660  -31.7441 C.2     1  UNL1       -0.0497
     33 C         -19.4838   -8.1405  -32.7727 C.ar    1  UNL1       -0.0249
     34 C         -18.1350   -8.5506  -32.8430 C.ar    1  UNL1       -0.0546
     35 C         -17.7166   -9.4637  -33.8288 C.ar    1  UNL1       -0.0612
     36 C         -18.6460   -9.9722  -34.7555 C.ar    1  UNL1       -0.0617
     37 C         -19.9914   -9.5624  -34.6992 C.ar    1  UNL1       -0.0612
     38 C         -20.4085   -8.6479  -33.7141 C.ar    1  UNL1       -0.0546
     39 H         -21.4301   -6.0780  -30.7256 H       1  UNL1        0.1498
     40 H         -21.2794   -3.7033  -29.1828 H       1  UNL1        0.0604
     41 H         -23.7900   -3.8092  -29.2126 H       1  UNL1        0.0420
     42 H         -23.7233   -5.4480  -29.8443 H       1  UNL1        0.0420
     43 H         -22.7363   -3.0442  -33.2177 H       1  UNL1        0.1228
     44 H         -20.3271   -4.0413  -27.2540 H       1  UNL1        0.1495
     45 H         -21.4039   -5.7993  -25.1433 H       1  UNL1        0.0583
     46 H         -19.6524   -4.5435  -23.8063 H       1  UNL1        0.0295
     47 H         -19.3703   -3.4826  -25.1608 H       1  UNL1        0.0295
     48 H         -18.6293   -5.4679  -26.5451 H       1  UNL1        0.0395
     49 H         -19.4713   -7.5234  -25.7395 H       1  UNL1        0.0288
     50 H         -19.4478   -6.9695  -24.0698 H       1  UNL1        0.0288
     51 H         -17.1895   -8.1698  -25.6359 H       1  UNL1        0.0462
     52 H         -17.4706   -8.1929  -23.8865 H       1  UNL1        0.0462
     53 H         -15.6585   -6.5065  -24.3796 H       1  UNL1        0.1487
     54 H         -24.2996   -3.3551  -23.9706 H       1  UNL1        0.1494
     55 H         -25.1470   -2.9275  -21.8278 H       1  UNL1        0.0512
     56 H         -23.5989   -3.2729  -21.1032 H       1  UNL1        0.0512
     57 H         -26.1850   -4.9777  -23.2439 H       1  UNL1        0.0621
     58 H         -26.9734   -7.3034  -22.8860 H       1  UNL1        0.0618
     59 H         -26.0071   -8.6830  -21.0548 H       1  UNL1        0.0618
     60 H         -24.2603   -7.7221  -19.5660 H       1  UNL1        0.0618
     61 H         -23.4516   -5.4323  -19.9216 H       1  UNL1        0.0621
     62 H         -18.2373   -7.3701  -30.4102 H       1  UNL1        0.0669
     63 H         -20.7919   -6.6431  -31.9345 H       1  UNL1        0.0625
     64 H         -17.4101   -8.1584  -32.1439 H       1  UNL1        0.0623
     65 H         -16.6814   -9.7690  -33.8768 H       1  UNL1        0.0618
     66 H         -18.3249  -10.6708  -35.5139 H       1  UNL1        0.0618
     67 H         -20.7042   -9.9471  -35.4136 H       1  UNL1        0.0618
     68 H         -21.4457   -8.3529  -33.6917 H       1  UNL1        0.0623
@<TRIPOS>BOND
     1     1     2    2
     2     2     3   am
     3     2    31    1
     4     3     4    1
     5     3    39    1
     6     4     5    1
     7     4     8    1
     8     4    40    1
     9     5     6    1
    10     5    41    1
    11     5    42    1
    12     6     7    3
    13     7    43    1
    14     8     9    2
    15     8    10   am
    16    10    11    1
    17    10    44    1
    18    11    12    1
    19    11    19    1
    20    11    45    1
    21    12    13    1
    22    12    46    1
    23    12    47    1
    24    13    17    1
    25    13    14    1
    26    13    48    1
    27    14    15    1
    28    14    49    1
    29    14    50    1
    30    15    16    1
    31    15    51    1
    32    15    52    1
    33    16    17   am
    34    16    53    1
    35    17    18    2
    36    19    20    2
    37    19    21    1
    38    21    22    2
    39    21    23   am
    40    23    24    1
    41    23    54    1
    42    24    25    1
    43    24    55    1
    44    24    56    1
    45    25    30   ar
    46    25    26   ar
    47    26    27   ar
    48    26    57    1
    49    27    28   ar
    50    27    58    1
    51    28    29   ar
    52    28    59    1
    53    29    30   ar
    54    29    60    1
    55    30    61    1
    56    31    32    2
    57    31    62    1
    58    32    33    1
    59    32    63    1
    60    33    38   ar
    61    33    34   ar
    62    34    35   ar
    63    34    64    1
    64    35    36   ar
    65    35    65    1
    66    36    37   ar
    67    36    66    1
    68    37    38   ar
    69    37    67    1
    70    38    68    1
