
                    3D
 Schrodinger Suite 2019-4.
 70 73  0  0  1  0            999 V2000
  -18.5533   -3.4793  -25.7689 C   0  0  0  0  0  0
  -18.9871   -4.6482  -24.8577 C   0  0  0  0  0  0
  -18.4481   -6.0123  -25.3386 C   0  0  0  0  0  0
  -20.5018   -4.6842  -24.5223 C   0  0  0  0  0  0
  -21.5399   -4.4093  -25.6457 C   0  0  2  0  0  0
  -22.8815   -4.6165  -25.1205 N   0  0  0  0  0  0
  -23.6058   -3.7136  -24.4453 C   0  0  0  0  0  0
  -23.2025   -2.5862  -24.1726 O   0  0  0  0  0  0
  -25.0112   -4.1383  -24.0178 C   0  0  0  0  0  0
  -25.6011   -4.9865  -25.0120 O   0  0  0  0  0  0
  -26.3842   -4.4207  -25.9945 C   0  0  0  0  0  0
  -27.3433   -5.2524  -26.5733 C   0  0  0  0  0  0
  -28.2519   -4.7392  -27.4869 C   0  0  0  0  0  0
  -28.1422   -3.4092  -27.8764 C   0  0  0  0  0  0
  -27.1549   -2.5863  -27.3526 C   0  0  0  0  0  0
  -26.2833   -3.0826  -26.3967 C   0  0  0  0  0  0
  -21.4224   -5.2793  -26.9013 C   0  0  0  0  0  0
  -21.6084   -6.4942  -26.8258 O   0  0  0  0  0  0
  -21.1894   -4.6201  -28.0489 N   0  0  0  0  0  0
  -21.0740   -5.2143  -29.3936 C   0  0  1  0  0  0
  -21.1891   -4.1005  -30.4635 C   0  0  0  0  0  0
  -22.5567   -3.3584  -30.5073 C   0  0  2  0  0  0
  -23.6898   -4.1947  -31.0858 C   0  0  0  0  0  0
  -23.6105   -3.9405  -32.5787 C   0  0  0  0  0  0
  -23.0620   -2.5940  -32.6195 N   0  0  0  0  0  0
  -22.4762   -2.1756  -31.4862 C   0  0  0  0  0  0
  -22.0035   -1.0651  -31.2654 O   0  0  0  0  0  0
  -19.7268   -5.9452  -29.5378 C   0  0  0  0  0  0
  -18.8053   -5.7506  -28.7388 O   0  0  0  0  0  0
  -19.4957   -6.8491  -30.6718 C   0  0  0  0  0  0
  -18.3411   -7.3905  -30.9552 N   0  0  0  0  0  0
  -18.3825   -8.1507  -32.0783 C   0  0  0  0  0  0
  -17.2811   -8.8201  -32.6313 C   0  0  0  0  0  0
  -17.4778   -9.5712  -33.7912 C   0  0  0  0  0  0
  -18.7354   -9.6603  -34.3880 C   0  0  0  0  0  0
  -19.8447   -8.9961  -33.8604 C   0  0  0  0  0  0
  -19.6564   -8.2375  -32.6971 C   0  0  0  0  0  0
  -20.8031   -7.2826  -31.7678 S   0  0  0  0  0  0
  -18.4035   -2.5733  -25.1818 H   0  0  0  0  0  0
  -17.6140   -3.6919  -26.2813 H   0  0  0  0  0  0
  -19.2779   -3.2386  -26.5438 H   0  0  0  0  0  0
  -18.4845   -4.4791  -23.9028 H   0  0  0  0  0  0
  -17.6969   -6.3950  -24.6456 H   0  0  0  0  0  0
  -19.2304   -6.7707  -25.4007 H   0  0  0  0  0  0
  -17.9744   -5.9536  -26.3195 H   0  0  0  0  0  0
  -20.6697   -3.9307  -23.7505 H   0  0  0  0  0  0
  -20.7312   -5.6350  -24.0361 H   0  0  0  0  0  0
  -21.4541   -3.3660  -25.9508 H   0  0  0  0  0  0
  -23.2955   -5.5138  -25.3361 H   0  0  0  0  0  0
  -25.6312   -3.2667  -23.7997 H   0  0  0  0  0  0
  -24.9402   -4.6939  -23.0827 H   0  0  0  0  0  0
  -27.4149   -6.2877  -26.2735 H   0  0  0  0  0  0
  -29.0145   -5.3702  -27.9212 H   0  0  0  0  0  0
  -28.8029   -3.0206  -28.6307 H   0  0  0  0  0  0
  -27.0764   -1.5589  -27.6733 H   0  0  0  0  0  0
  -25.5420   -2.4153  -25.9852 H   0  0  0  0  0  0
  -21.0575   -3.6185  -28.0087 H   0  0  0  0  0  0
  -21.8959   -5.9221  -29.5163 H   0  0  0  0  0  0
  -20.9565   -4.4804  -31.4599 H   0  0  0  0  0  0
  -20.4033   -3.3861  -30.2398 H   0  0  0  0  0  0
  -22.8472   -2.9814  -29.5254 H   0  0  0  0  0  0
  -24.6335   -3.7985  -30.7048 H   0  0  0  0  0  0
  -23.6673   -5.2552  -30.8342 H   0  0  0  0  0  0
  -24.5897   -3.9849  -33.0597 H   0  0  0  0  0  0
  -22.9366   -4.6328  -33.0845 H   0  0  0  0  0  0
  -23.0161   -2.0565  -33.4720 H   0  0  0  0  0  0
  -16.3073   -8.7557  -32.1681 H   0  0  0  0  0  0
  -16.6425  -10.0936  -34.2372 H   0  0  0  0  0  0
  -18.8468  -10.2486  -35.2884 H   0  0  0  0  0  0
  -20.8114   -9.0662  -34.3369 H   0  0  0  0  0  0
  1  2  1  0  0  0
  1 39  1  0  0  0
  1 40  1  0  0  0
  1 41  1  0  0  0
  2  3  1  0  0  0
  2  4  1  0  0  0
  2 42  1  0  0  0
  3 43  1  0  0  0
  3 44  1  0  0  0
  3 45  1  0  0  0
  4  5  1  0  0  0
  4 46  1  0  0  0
  4 47  1  0  0  0
  5  6  1  0  0  0
  5 17  1  0  0  0
  5 48  1  0  0  0
  6  7  1  0  0  0
  6 49  1  0  0  0
  7  8  2  0  0  0
  7  9  1  0  0  0
  9 10  1  0  0  0
  9 50  1  0  0  0
  9 51  1  0  0  0
 10 11  1  0  0  0
 11 16  1  0  0  0
 11 12  2  0  0  0
 12 13  1  0  0  0
 12 52  1  0  0  0
 13 14  2  0  0  0
 13 53  1  0  0  0
 14 15  1  0  0  0
 14 54  1  0  0  0
 15 16  2  0  0  0
 15 55  1  0  0  0
 16 56  1  0  0  0
 17 18  2  0  0  0
 17 19  1  0  0  0
 19 20  1  0  0  0
 19 57  1  0  0  0
 20 21  1  0  0  0
 20 28  1  0  0  0
 20 58  1  0  0  0
 21 22  1  0  0  0
 21 59  1  0  0  0
 21 60  1  0  0  0
 22 26  1  0  0  0
 22 23  1  0  0  0
 22 61  1  0  0  0
 23 24  1  0  0  0
 23 62  1  0  0  0
 23 63  1  0  0  0
 24 25  1  0  0  0
 24 64  1  0  0  0
 24 65  1  0  0  0
 25 26  1  0  0  0
 25 66  1  0  0  0
 26 27  2  0  0  0
 28 29  2  0  0  0
 28 30  1  0  0  0
 30 38  1  0  0  0
 30 31  2  0  0  0
 31 32  1  0  0  0
 32 37  2  0  0  0
 32 33  1  0  0  0
 33 34  2  0  0  0
 33 67  1  0  0  0
 34 35  1  0  0  0
 34 68  1  0  0  0
 35 36  2  0  0  0
 35 69  1  0  0  0
 36 37  1  0  0  0
 36 70  1  0  0  0
 37 38  1  0  0  0
M  END
$$$$
