@<TRIPOS>MOLECULE
*****
 70 73 0 0 0
SMALL
GASTEIGER
****
Schrodinger Suite 2019-4.
@<TRIPOS>ATOM
      1 C         -18.5533   -3.4793  -25.7689 C.3     1  UNL1       -0.0626
      2 C         -18.9871   -4.6482  -24.8577 C.3     1  UNL1       -0.0446
      3 C         -18.4481   -6.0123  -25.3386 C.3     1  UNL1       -0.0626
      4 C         -20.5018   -4.6842  -24.5223 C.3     1  UNL1       -0.0236
      5 C         -21.5399   -4.4093  -25.6457 C.3     1  UNL1        0.0997
      6 N         -22.8815   -4.6165  -25.1205 N.am    1  UNL1       -0.3012
      7 C         -23.6058   -3.7136  -24.4453 C.2     1  UNL1        0.2513
      8 O         -23.2025   -2.5862  -24.1726 O.2     1  UNL1       -0.2721
      9 C         -25.0112   -4.1383  -24.0178 C.3     1  UNL1        0.1652
     10 O         -25.6011   -4.9865  -25.0120 O.3     1  UNL1       -0.4828
     11 C         -26.3842   -4.4207  -25.9945 C.ar    1  UNL1        0.1212
     12 C         -27.3433   -5.2524  -26.5733 C.ar    1  UNL1       -0.0199
     13 C         -28.2519   -4.7392  -27.4869 C.ar    1  UNL1       -0.0583
     14 C         -28.1422   -3.4092  -27.8764 C.ar    1  UNL1       -0.0615
     15 C         -27.1549   -2.5863  -27.3526 C.ar    1  UNL1       -0.0583
     16 C         -26.2833   -3.0826  -26.3967 C.ar    1  UNL1       -0.0199
     17 C         -21.4224   -5.2793  -26.9013 C.2     1  UNL1        0.2339
     18 O         -21.6084   -6.4942  -26.8258 O.2     1  UNL1       -0.2738
     19 N         -21.1894   -4.6201  -28.0489 N.am    1  UNL1       -0.3037
     20 C         -21.0740   -5.2143  -29.3936 C.3     1  UNL1        0.0888
     21 C         -21.1891   -4.1005  -30.4635 C.3     1  UNL1       -0.0160
     22 C         -22.5567   -3.3584  -30.5073 C.3     1  UNL1        0.0390
     23 C         -23.6898   -4.1947  -31.0858 C.3     1  UNL1       -0.0262
     24 C         -23.6105   -3.9405  -32.5787 C.3     1  UNL1        0.0123
     25 N         -23.0620   -2.5940  -32.6195 N.am    1  UNL1       -0.3151
     26 C         -22.4762   -2.1756  -31.4862 C.2     1  UNL1        0.2162
     27 O         -22.0035   -1.0651  -31.2654 O.2     1  UNL1       -0.2755
     28 C         -19.7268   -5.9452  -29.5378 C.2     1  UNL1        0.2079
     29 O         -18.8053   -5.7506  -28.7388 O.2     1  UNL1       -0.2879
     30 C         -19.4957   -6.8491  -30.6718 C.ar    1  UNL1        0.1465
     31 N         -18.3411   -7.3905  -30.9552 N.ar    1  UNL1       -0.2360
     32 C         -18.3825   -8.1507  -32.0783 C.ar    1  UNL1        0.0790
     33 C         -17.2811   -8.8201  -32.6313 C.ar    1  UNL1       -0.0352
     34 C         -17.4778   -9.5712  -33.7912 C.ar    1  UNL1       -0.0597
     35 C         -18.7354   -9.6603  -34.3880 C.ar    1  UNL1       -0.0606
     36 C         -19.8447   -8.9961  -33.8604 C.ar    1  UNL1       -0.0459
     37 C         -19.6564   -8.2375  -32.6971 C.ar    1  UNL1        0.0396
     38 S         -20.8031   -7.2826  -31.7678 S.2     1  UNL1       -0.0643
     39 H         -18.4035   -2.5733  -25.1818 H       1  UNL1        0.0232
     40 H         -17.6140   -3.6919  -26.2813 H       1  UNL1        0.0232
     41 H         -19.2779   -3.2386  -26.5438 H       1  UNL1        0.0232
     42 H         -18.4845   -4.4791  -23.9028 H       1  UNL1        0.0296
     43 H         -17.6969   -6.3950  -24.6456 H       1  UNL1        0.0232
     44 H         -19.2304   -6.7707  -25.4007 H       1  UNL1        0.0232
     45 H         -17.9744   -5.9536  -26.3195 H       1  UNL1        0.0232
     46 H         -20.6697   -3.9307  -23.7505 H       1  UNL1        0.0290
     47 H         -20.7312   -5.6350  -24.0361 H       1  UNL1        0.0290
     48 H         -21.4541   -3.3660  -25.9508 H       1  UNL1        0.0594
     49 H         -23.2955   -5.5138  -25.3361 H       1  UNL1        0.1496
     50 H         -25.6312   -3.2667  -23.7997 H       1  UNL1        0.0795
     51 H         -24.9402   -4.6939  -23.0827 H       1  UNL1        0.0795
     52 H         -27.4149   -6.2877  -26.2735 H       1  UNL1        0.0654
     53 H         -29.0145   -5.3702  -27.9212 H       1  UNL1        0.0619
     54 H         -28.8029   -3.0206  -28.6307 H       1  UNL1        0.0618
     55 H         -27.0764   -1.5589  -27.6733 H       1  UNL1        0.0619
     56 H         -25.5420   -2.4153  -25.9852 H       1  UNL1        0.0654
     57 H         -21.0575   -3.6185  -28.0087 H       1  UNL1        0.1495
     58 H         -21.8959   -5.9221  -29.5163 H       1  UNL1        0.0582
     59 H         -20.9565   -4.4804  -31.4599 H       1  UNL1        0.0295
     60 H         -20.4033   -3.3861  -30.2398 H       1  UNL1        0.0295
     61 H         -22.8472   -2.9814  -29.5254 H       1  UNL1        0.0395
     62 H         -24.6335   -3.7985  -30.7048 H       1  UNL1        0.0288
     63 H         -23.6673   -5.2552  -30.8342 H       1  UNL1        0.0288
     64 H         -24.5897   -3.9849  -33.0597 H       1  UNL1        0.0462
     65 H         -22.9366   -4.6328  -33.0845 H       1  UNL1        0.0462
     66 H         -23.0161   -2.0565  -33.4720 H       1  UNL1        0.1487
     67 H         -16.3073   -8.7557  -32.1681 H       1  UNL1        0.0639
     68 H         -16.6425  -10.0936  -34.2372 H       1  UNL1        0.0618
     69 H         -18.8468  -10.2486  -35.2884 H       1  UNL1        0.0618
     70 H         -20.8114   -9.0662  -34.3369 H       1  UNL1        0.0629
@<TRIPOS>BOND
     1     1     2    1
     2     1    39    1
     3     1    40    1
     4     1    41    1
     5     2     3    1
     6     2     4    1
     7     2    42    1
     8     3    43    1
     9     3    44    1
    10     3    45    1
    11     4     5    1
    12     4    46    1
    13     4    47    1
    14     5     6    1
    15     5    17    1
    16     5    48    1
    17     6     7   am
    18     6    49    1
    19     7     8    2
    20     7     9    1
    21     9    10    1
    22     9    50    1
    23     9    51    1
    24    10    11    1
    25    11    16   ar
    26    11    12   ar
    27    12    13   ar
    28    12    52    1
    29    13    14   ar
    30    13    53    1
    31    14    15   ar
    32    14    54    1
    33    15    16   ar
    34    15    55    1
    35    16    56    1
    36    17    18    2
    37    17    19   am
    38    19    20    1
    39    19    57    1
    40    20    21    1
    41    20    28    1
    42    20    58    1
    43    21    22    1
    44    21    59    1
    45    21    60    1
    46    22    26    1
    47    22    23    1
    48    22    61    1
    49    23    24    1
    50    23    62    1
    51    23    63    1
    52    24    25    1
    53    24    64    1
    54    24    65    1
    55    25    26   am
    56    25    66    1
    57    26    27    2
    58    28    29    2
    59    28    30    1
    60    30    38   ar
    61    30    31   ar
    62    31    32   ar
    63    32    37   ar
    64    32    33   ar
    65    33    34   ar
    66    33    67    1
    67    34    35   ar
    68    34    68    1
    69    35    36   ar
    70    35    69    1
    71    36    37   ar
    72    36    70    1
    73    37    38   ar
