@<TRIPOS>MOLECULE
/home/lixiaoshuang.lxs/med/data/m_pro/PDB_BA/6y2g/6y2g_ligand.pdb
 43 46 0 0 0
SMALL
GASTEIGER

@<TRIPOS>ATOM
      1  O26      -19.3820   -9.3360  -32.3290 O.2   402  O6K402     -0.2242
      2  C24      -18.6030   -8.5840  -31.7600 C.2   402  O6K402      0.4253
      3  O25      -17.1850   -8.8510  -31.7470 O.3   402  O6K402     -0.4406
      4  C27      -16.7710  -10.1910  -31.5730 C.3   402  O6K402      0.1379
      5  C31      -17.7070  -10.9330  -30.6060 C.3   402  O6K402      0.0437
      6  C32      -15.3910  -10.2110  -30.9380 C.3   402  O6K402      0.0437
      7  C33      -16.7560  -10.7710  -32.9900 C.3   402  O6K402      0.0437
      8  N23      -18.9620   -7.5010  -31.1240 N.am  402  O6K402     -0.1376
      9  C19      -20.2270   -7.0640  -31.0000 C.ar  402  O6K402      0.1327
     10  C21      -20.3800   -5.8110  -30.2200 C.ar  402  O6K402      0.2767
     11  O22      -19.3660   -5.2000  -29.7010 O.2   402  O6K402     -0.2655
     12  C18      -21.3660   -7.6980  -31.5090 C.ar  402  O6K402      0.0231
     13  C17      -22.6250   -7.1530  -31.2980 C.ar  402  O6K402      0.0202
     14  C16      -22.7730   -5.9890  -30.5890 C.ar  402  O6K402      0.0788
     15  N15      -21.7030   -5.3450  -30.0950 N.ar  402  O6K402     -0.2864
     16  C20      -21.7910   -4.1640  -29.2670 C.3   402  O6K402      0.1662
     17  C22      -23.1090   -3.3900  -29.3840 C.3   402  O6K402      0.0321
     18  C29      -23.4370   -2.9740  -30.8190 C.3   402  O6K402      0.0024
     19  C34      -22.5050   -1.9860  -31.5200 C.3   402  O6K402      0.0001
     20  C30      -23.8890   -1.5310  -31.0550 C.3   402  O6K402      0.0001
     21  C36      -21.5450   -4.6280  -27.8340 C.2   402  O6K402      0.2621
     22  O37      -21.8920   -5.7550  -27.3840 O.2   402  O6K402     -0.2713
     23  N38      -20.9040   -3.7540  -27.0850 N.am  402  O6K402     -0.2025
     24  C40      -20.6560   -4.0180  -25.6410 C.3   402  O6K402      0.1352
     25  C42      -19.1570   -3.9210  -25.2960 C.3   402  O6K402      0.0343
     26  C45      -18.3150   -5.1070  -25.8180 C.3   402  O6K402      0.0861
     27  C47      -16.8120   -4.9390  -25.5290 C.2   402  O6K402      0.2453
     28  O48      -16.1510   -3.8920  -25.7410 O.2   402  O6K402     -0.2730
     29  N49      -16.3440   -6.0920  -25.0400 N.am  402  O6K402     -0.1826
     30  C51      -17.3670   -7.1070  -24.7570 C.2   402  O6K402      0.0627
     31  C54      -18.6960   -6.4510  -25.2050 C.3   402  O6K402      0.0534
     32  C57      -21.5060   -2.9220  -24.9740 C.3   402  O6K402      0.2487
     33  O40      -22.8940   -2.8020  -25.4110 O.3   402  O6K402     -0.2113
     34  C35      -21.5270   -3.0670  -23.5040 C.2   402  O6K402      0.2739
     35  O41      -20.5460   -2.8090  -22.8480 O.2   402  O6K402     -0.2705
     36  N36      -22.5520   -3.3290  -22.8630 N.am  402  O6K402     -0.1984
     37  C13      -23.8870   -3.7280  -23.0240 C.3   402  O6K402      0.1415
     38  C14      -23.9690   -5.1330  -22.4550 C.ar  402  O6K402     -0.0006
     39  C28      -24.3680   -5.3270  -21.1390 C.ar  402  O6K402     -0.0026
     40  C26      -24.4920   -6.6310  -20.6480 C.ar  402  O6K402     -0.0003
     41  C25      -24.2180   -7.7470  -21.4650 C.ar  402  O6K402     -0.0000
     42  C23      -23.8140   -7.5410  -22.7800 C.ar  402  O6K402     -0.0003
     43  C15      -23.6920   -6.2460  -23.2790 C.ar  402  O6K402     -0.0026
@<TRIPOS>BOND
     1     7     4    1
     2     1     2    2
     3     2     3    1
     4     2     8   am
     5     3     4    1
     6     4     6    1
     7     4     5    1
     8    19    20    1
     9    19    18    1
    10    12    13   ar
    11    12     9   ar
    12    13    14   ar
    13     8     9    1
    14    20    18    1
    15     9    10   ar
    16    18    17    1
    17    14    15   ar
    18    10    15   ar
    19    10    11    2
    20    15    16    1
    21    17    16    1
    22    16    21    1
    23    21    22    2
    24    21    23   am
    25    23    24    1
    26    26    27    1
    27    26    25    1
    28    26    31    1
    29    28    27    2
    30    24    25    1
    31    24    32    1
    32    27    29    1
    33    33    32    1
    34    31    30    1
    35    29    30    2
    36    32    34    1
    37    34    36   am
    38    34    35    2
    39    43    42   ar
    40    43    38   ar
    41    37    36    1
    42    37    38    1
    43    42    41   ar
    44    38    39   ar
    45    41    40   ar
    46    39    40   ar
