
                    3D
 Schrodinger Suite 2019-4.
 64 67  0  0  1  0            999 V2000
  -12.9604   -6.6601  -24.2108 C   0  0  0  0  0  0
  -14.4431   -7.0152  -24.2598 C   0  0  0  0  0  0
  -14.8065   -8.1181  -23.8586 O   0  0  0  0  0  0
  -15.2438   -6.0490  -24.7541 N   0  0  0  0  0  0
  -16.5716   -6.1266  -25.2137 C   0  0  0  0  0  0
  -17.3712   -7.2806  -25.1938 C   0  0  0  0  0  0
  -18.5929   -7.2955  -25.8712 C   0  0  0  0  0  0
  -19.0037   -6.1757  -26.6102 C   0  0  0  0  0  0
  -20.2434   -6.1735  -27.3171 N   0  0  0  0  0  0
  -20.3274   -6.9505  -28.4488 C   0  0  0  0  0  0
  -21.4061   -7.3166  -28.9159 O   0  0  0  0  0  0
  -19.0286   -7.3567  -29.1949 C   0  0  0  0  0  0
  -19.2065   -8.0373  -30.4799 N   0  0  0  0  0  0
  -18.8789   -9.3389  -30.6041 N   0  0  0  0  0  0
  -19.1007   -9.7324  -31.9052 N   0  0  0  0  0  0
  -19.5694   -8.6458  -32.5815 C   0  0  0  0  0  0
  -19.9393   -8.5050  -33.9261 C   0  0  0  0  0  0
  -20.3779   -7.2511  -34.3561 C   0  0  0  0  0  0
  -20.4532   -6.1718  -33.4748 C   0  0  0  0  0  0
  -20.1004   -6.2845  -32.1263 C   0  0  0  0  0  0
  -19.6561   -7.5405  -31.6967 C   0  0  0  0  0  0
  -21.4646   -5.6341  -26.6040 C   0  0  2  0  0  0
  -22.7138   -5.1188  -27.3797 C   0  0  0  0  0  0
  -23.8131   -5.2184  -26.8284 O   0  0  0  0  0  0
  -22.5254   -4.5747  -28.6000 N   0  0  0  0  0  0
  -23.5346   -3.9650  -29.4771 C   0  0  0  0  0  0
  -22.8345   -3.5437  -30.7822 C   0  0  0  0  0  0
  -24.1477   -2.7119  -28.8138 C   0  0  0  0  0  0
  -24.6551   -4.9602  -29.8452 C   0  0  0  0  0  0
  -21.1060   -4.5701  -25.6144 C   0  0  0  0  0  0
  -20.6824   -3.2690  -25.9411 C   0  0  0  0  0  0
  -19.9985   -2.6721  -24.8982 C   0  0  0  0  0  0
  -20.0562   -3.6162  -23.4569 S   0  0  0  0  0  0
  -20.9797   -4.8362  -24.2607 C   0  0  0  0  0  0
  -18.2238   -5.0159  -26.5763 C   0  0  0  0  0  0
  -17.0440   -4.9743  -25.8442 C   0  0  0  0  0  0
  -12.8092   -5.6176  -23.9410 H   0  0  0  0  0  0
  -12.4554   -7.2719  -23.4632 H   0  0  0  0  0  0
  -12.4745   -6.8412  -25.1657 H   0  0  0  0  0  0
  -14.7957   -5.1694  -24.9500 H   0  0  0  0  0  0
  -17.0508   -8.1853  -24.7016 H   0  0  0  0  0  0
  -19.1976   -8.1900  -25.8502 H   0  0  0  0  0  0
  -18.4177   -7.9966  -28.5543 H   0  0  0  0  0  0
  -18.4529   -6.4544  -29.3988 H   0  0  0  0  0  0
  -19.8808   -9.3398  -34.6076 H   0  0  0  0  0  0
  -20.6600   -7.1135  -35.3905 H   0  0  0  0  0  0
  -20.7983   -5.2182  -33.8484 H   0  0  0  0  0  0
  -20.1550   -5.4412  -31.4540 H   0  0  0  0  0  0
  -21.8251   -6.4973  -26.0415 H   0  0  0  0  0  0
  -21.5865   -4.5793  -28.9668 H   0  0  0  0  0  0
  -23.5351   -3.0954  -31.4871 H   0  0  0  0  0  0
  -22.0536   -2.8072  -30.5962 H   0  0  0  0  0  0
  -22.3741   -4.3974  -31.2820 H   0  0  0  0  0  0
  -24.8170   -2.1814  -29.4945 H   0  0  0  0  0  0
  -24.7258   -2.9592  -27.9239 H   0  0  0  0  0  0
  -23.3684   -2.0169  -28.5091 H   0  0  0  0  0  0
  -25.3411   -4.5452  -30.5850 H   0  0  0  0  0  0
  -24.2505   -5.8876  -30.2537 H   0  0  0  0  0  0
  -25.2526   -5.2174  -28.9732 H   0  0  0  0  0  0
  -20.7355   -2.8413  -26.9348 H   0  0  0  0  0  0
  -19.4690   -1.7328  -24.9077 H   0  0  0  0  0  0
  -21.2529   -5.7512  -23.7603 H   0  0  0  0  0  0
  -18.5320   -4.1252  -27.0947 H   0  0  0  0  0  0
  -16.4533   -4.0691  -25.8575 H   0  0  0  0  0  0
  1  2  1  0  0  0
  1 37  1  0  0  0
  1 38  1  0  0  0
  1 39  1  0  0  0
  2  3  2  0  0  0
  2  4  1  0  0  0
  4  5  1  0  0  0
  4 40  1  0  0  0
  5 36  1  0  0  0
  5  6  2  0  0  0
  6  7  1  0  0  0
  6 41  1  0  0  0
  7  8  2  0  0  0
  7 42  1  0  0  0
  8  9  1  0  0  0
  8 35  1  0  0  0
  9 10  1  0  0  0
  9 22  1  0  0  0
 10 11  2  0  0  0
 10 12  1  0  0  0
 12 13  1  0  0  0
 12 43  1  0  0  0
 12 44  1  0  0  0
 13 21  1  0  0  0
 13 14  1  0  0  0
 14 15  2  0  0  0
 15 16  1  0  0  0
 16 21  2  0  0  0
 16 17  1  0  0  0
 17 18  2  0  0  0
 17 45  1  0  0  0
 18 19  1  0  0  0
 18 46  1  0  0  0
 19 20  2  0  0  0
 19 47  1  0  0  0
 20 21  1  0  0  0
 20 48  1  0  0  0
 22 23  1  0  0  0
 22 30  1  0  0  0
 22 49  1  0  0  0
 23 24  2  0  0  0
 23 25  1  0  0  0
 25 26  1  0  0  0
 25 50  1  0  0  0
 26 27  1  0  0  0
 26 28  1  0  0  0
 26 29  1  0  0  0
 27 51  1  0  0  0
 27 52  1  0  0  0
 27 53  1  0  0  0
 28 54  1  0  0  0
 28 55  1  0  0  0
 28 56  1  0  0  0
 29 57  1  0  0  0
 29 58  1  0  0  0
 29 59  1  0  0  0
 30 34  2  0  0  0
 30 31  1  0  0  0
 31 32  2  0  0  0
 31 60  1  0  0  0
 32 33  1  0  0  0
 32 61  1  0  0  0
 33 34  1  0  0  0
 34 62  1  0  0  0
 35 36  2  0  0  0
 35 63  1  0  0  0
 36 64  1  0  0  0
M  END
$$$$
