@<TRIPOS>MOLECULE
*****
 64 67 0 0 0
SMALL
GASTEIGER
****
Schrodinger Suite 2019-4.
@<TRIPOS>ATOM
      1 C         -12.9604   -6.6601  -24.2108 C.3     1  UNL1        0.0125
      2 C         -14.4431   -7.0152  -24.2598 C.2     1  UNL1        0.2141
      3 O         -14.8065   -8.1181  -23.8586 O.2     1  UNL1       -0.2758
      4 N         -15.2438   -6.0490  -24.7541 N.am    1  UNL1       -0.2857
      5 C         -16.5716   -6.1266  -25.2137 C.ar    1  UNL1        0.0335
      6 C         -17.3712   -7.2806  -25.1938 C.ar    1  UNL1       -0.0387
      7 C         -18.5929   -7.2955  -25.8712 C.ar    1  UNL1       -0.0385
      8 C         -19.0037   -6.1757  -26.6102 C.ar    1  UNL1        0.0376
      9 N         -20.2434   -6.1735  -27.3171 N.am    1  UNL1       -0.2538
     10 C         -20.3274   -6.9505  -28.4488 C.2     1  UNL1        0.2423
     11 O         -21.4061   -7.3166  -28.9159 O.2     1  UNL1       -0.2732
     12 C         -19.0286   -7.3567  -29.1949 C.3     1  UNL1        0.1204
     13 N         -19.2065   -8.0373  -30.4799 N.ar    1  UNL1       -0.2351
     14 N         -18.8789   -9.3389  -30.6041 N.ar    1  UNL1       -0.0641
     15 N         -19.1007   -9.7324  -31.9052 N.ar    1  UNL1       -0.1295
     16 C         -19.5694   -8.6458  -32.5815 C.ar    1  UNL1        0.1127
     17 C         -19.9393   -8.5050  -33.9261 C.ar    1  UNL1       -0.0324
     18 C         -20.3779   -7.2511  -34.3561 C.ar    1  UNL1       -0.0596
     19 C         -20.4532   -6.1718  -33.4748 C.ar    1  UNL1       -0.0596
     20 C         -20.1004   -6.2845  -32.1263 C.ar    1  UNL1       -0.0345
     21 C         -19.6561   -7.5405  -31.6967 C.ar    1  UNL1        0.0895
     22 C         -21.4646   -5.6341  -26.6040 C.3     1  UNL1        0.1326
     23 C         -22.7138   -5.1188  -27.3797 C.2     1  UNL1        0.2388
     24 O         -23.8131   -5.2184  -26.8284 O.2     1  UNL1       -0.2734
     25 N         -22.5254   -4.5747  -28.6000 N.am    1  UNL1       -0.3087
     26 C         -23.5346   -3.9650  -29.4771 C.3     1  UNL1        0.0262
     27 C         -22.8345   -3.5437  -30.7822 C.3     1  UNL1       -0.0442
     28 C         -24.1477   -2.7119  -28.8138 C.3     1  UNL1       -0.0442
     29 C         -24.6551   -4.9602  -29.8452 C.3     1  UNL1       -0.0442
     30 C         -21.1060   -4.5701  -25.6144 C.ar    1  UNL1       -0.0109
     31 C         -20.6824   -3.2690  -25.9411 C.ar    1  UNL1       -0.0493
     32 C         -19.9985   -2.6721  -24.8982 C.ar    1  UNL1       -0.0240
     33 S         -20.0562   -3.6162  -23.4569 S.2     1  UNL1       -0.1047
     34 C         -20.9797   -4.8362  -24.2607 C.ar    1  UNL1       -0.0189
     35 C         -18.2238   -5.0159  -26.5763 C.ar    1  UNL1       -0.0385
     36 C         -17.0440   -4.9743  -25.8442 C.ar    1  UNL1       -0.0387
     37 H         -12.8092   -5.6176  -23.9410 H       1  UNL1        0.0323
     38 H         -12.4554   -7.2719  -23.4632 H       1  UNL1        0.0323
     39 H         -12.4745   -6.8412  -25.1657 H       1  UNL1        0.0323
     40 H         -14.7957   -5.1694  -24.9500 H       1  UNL1        0.1548
     41 H         -17.0508   -8.1853  -24.7016 H       1  UNL1        0.0637
     42 H         -19.1976   -8.1900  -25.8502 H       1  UNL1        0.0637
     43 H         -18.4177   -7.9966  -28.5543 H       1  UNL1        0.0606
     44 H         -18.4529   -6.4544  -29.3988 H       1  UNL1        0.0606
     45 H         -19.8808   -9.3398  -34.6076 H       1  UNL1        0.0640
     46 H         -20.6600   -7.1135  -35.3905 H       1  UNL1        0.0618
     47 H         -20.7983   -5.2182  -33.8484 H       1  UNL1        0.0618
     48 H         -20.1550   -5.4412  -31.4540 H       1  UNL1        0.0639
     49 H         -21.8251   -6.4973  -26.0415 H       1  UNL1        0.0651
     50 H         -21.5865   -4.5793  -28.9668 H       1  UNL1        0.1493
     51 H         -23.5351   -3.0954  -31.4871 H       1  UNL1        0.0250
     52 H         -22.0536   -2.8072  -30.5962 H       1  UNL1        0.0250
     53 H         -22.3741   -4.3974  -31.2820 H       1  UNL1        0.0250
     54 H         -24.8170   -2.1814  -29.4945 H       1  UNL1        0.0250
     55 H         -24.7258   -2.9592  -27.9239 H       1  UNL1        0.0250
     56 H         -23.3684   -2.0169  -28.5091 H       1  UNL1        0.0250
     57 H         -25.3411   -4.5452  -30.5850 H       1  UNL1        0.0250
     58 H         -24.2505   -5.8876  -30.2537 H       1  UNL1        0.0250
     59 H         -25.2526   -5.2174  -28.9732 H       1  UNL1        0.0250
     60 H         -20.7355   -2.8413  -26.9348 H       1  UNL1        0.0626
     61 H         -19.4690   -1.7328  -24.9077 H       1  UNL1        0.0693
     62 H         -21.2529   -5.7512  -23.7603 H       1  UNL1        0.0697
     63 H         -18.5320   -4.1252  -27.0947 H       1  UNL1        0.0637
     64 H         -16.4533   -4.0691  -25.8575 H       1  UNL1        0.0637
@<TRIPOS>BOND
     1     1     2    1
     2     1    37    1
     3     1    38    1
     4     1    39    1
     5     2     3    2
     6     2     4   am
     7     4     5    1
     8     4    40    1
     9     5    36   ar
    10     5     6   ar
    11     6     7   ar
    12     6    41    1
    13     7     8   ar
    14     7    42    1
    15     8     9    1
    16     8    35   ar
    17     9    10   am
    18     9    22    1
    19    10    11    2
    20    10    12    1
    21    12    13    1
    22    12    43    1
    23    12    44    1
    24    13    21   ar
    25    13    14   ar
    26    14    15   ar
    27    15    16   ar
    28    16    21   ar
    29    16    17   ar
    30    17    18   ar
    31    17    45    1
    32    18    19   ar
    33    18    46    1
    34    19    20   ar
    35    19    47    1
    36    20    21   ar
    37    20    48    1
    38    22    23    1
    39    22    30    1
    40    22    49    1
    41    23    24    2
    42    23    25   am
    43    25    26    1
    44    25    50    1
    45    26    27    1
    46    26    28    1
    47    26    29    1
    48    27    51    1
    49    27    52    1
    50    27    53    1
    51    28    54    1
    52    28    55    1
    53    28    56    1
    54    29    57    1
    55    29    58    1
    56    29    59    1
    57    30    34   ar
    58    30    31   ar
    59    31    32   ar
    60    31    60    1
    61    32    33   ar
    62    32    61    1
    63    33    34   ar
    64    34    62    1
    65    35    36   ar
    66    35    63    1
    67    36    64    1
