@<TRIPOS>MOLECULE
*****
 95 95 0 0 0
SMALL
GASTEIGER
****
Schrodinger Suite 2019-4.
@<TRIPOS>ATOM
      1 C         -25.4892   -4.0615  -21.4919 C.3     1  UNL1       -0.0306
      2 C         -24.5257   -2.8739  -21.6041 C.3     1  UNL1        0.0900
      3 O         -23.2835   -3.2867  -22.1636 O.3     1  UNL1       -0.4618
      4 C         -23.0290   -3.1114  -23.4623 C.2     1  UNL1        0.3317
      5 O         -23.7443   -2.4709  -24.2314 O.2     1  UNL1       -0.2456
      6 C         -21.7976   -3.7690  -23.8635 C.2     1  UNL1        0.0203
      7 C         -21.6824   -4.2918  -25.0986 C.2     1  UNL1       -0.0572
      8 C         -20.5004   -5.0559  -25.6695 C.3     1  UNL1        0.0427
      9 C         -19.1005   -4.7608  -25.0847 C.3     1  UNL1       -0.0197
     10 C         -18.0244   -5.7603  -25.6112 C.3     1  UNL1        0.0389
     11 C         -18.0813   -7.1612  -25.0190 C.3     1  UNL1       -0.0262
     12 C         -16.6326   -7.6202  -25.0086 C.3     1  UNL1        0.0123
     13 N         -15.8909   -6.3709  -25.0319 N.am    1  UNL1       -0.3151
     14 C         -16.5973   -5.2731  -25.3462 C.2     1  UNL1        0.2162
     15 O         -16.1894   -4.1219  -25.4353 O.2     1  UNL1       -0.2755
     16 N         -20.4947   -4.9306  -27.1286 N.am    1  UNL1       -0.3075
     17 C         -21.0498   -5.8346  -27.9492 C.2     1  UNL1        0.2338
     18 O         -21.5844   -6.8685  -27.5508 O.2     1  UNL1       -0.2738
     19 C         -20.9874   -5.5408  -29.4581 C.3     1  UNL1        0.0996
     20 C         -22.4091   -5.2985  -30.0312 C.3     1  UNL1       -0.0236
     21 C         -22.4818   -4.3447  -31.2465 C.3     1  UNL1       -0.0446
     22 C         -23.9458   -4.0845  -31.6560 C.3     1  UNL1       -0.0626
     23 C         -21.6642   -4.8316  -32.4494 C.3     1  UNL1       -0.0626
     24 N         -20.3498   -6.6691  -30.1450 N.am    1  UNL1       -0.3025
     25 C         -19.0534   -7.0008  -30.0181 C.2     1  UNL1        0.2342
     26 O         -18.2411   -6.2915  -29.4299 O.2     1  UNL1       -0.2738
     27 C         -18.6255   -8.3331  -30.6818 C.3     1  UNL1        0.1017
     28 N         -18.3410   -8.1467  -32.1028 N.am    1  UNL1       -0.3022
     29 C         -19.2119   -7.9175  -33.0965 C.2     1  UNL1        0.2363
     30 O         -20.4377   -7.9275  -32.9707 O.2     1  UNL1       -0.2737
     31 CA        -18.5490   -7.5652  -34.4615 C.3     1  UNL1        0.1253
     32 C         -18.0928   -6.0743  -34.5937 C.3     1  UNL1        0.0712
     33 O         -18.2411   -5.2708  -33.4329 O.3     1  UNL1       -0.3927
     34 N         -19.3570   -7.9434  -35.6407 N.am    1  UNL1       -0.2676
     35 C         -19.6168   -9.2735  -35.9351 C.2     1  UNL1        0.4014
     36 O         -19.1617  -10.2455  -35.3298 O.2     1  UNL1       -0.2264
     37 O         -20.4725   -9.3331  -36.9820 O.3     1  UNL1       -0.4447
     38 C         -21.1140  -10.5340  -37.4430 C.3     1  UNL1        0.1068
     39 C         -22.0494  -11.1132  -36.3555 C.3     1  UNL1       -0.0253
     40 C         -20.0930  -11.5913  -37.9292 C.3     1  UNL1       -0.0253
     41 C         -21.9572  -10.0710  -38.6410 C.3     1  UNL1       -0.0253
     42 C         -17.4139   -9.0548  -29.9809 C.3     1  UNL1       -0.0197
     43 C         -17.2826   -8.8843  -28.4530 C.3     1  UNL1       -0.0605
     44 C         -16.0403   -8.7519  -30.6135 C.3     1  UNL1       -0.0605
     45 H         -26.4289   -3.7497  -21.0336 H       1  UNL1        0.0262
     46 H         -25.7180   -4.4731  -22.4752 H       1  UNL1        0.0262
     47 H         -25.0638   -4.8565  -20.8791 H       1  UNL1        0.0262
     48 H         -24.3081   -2.4657  -20.6262 H       1  UNL1        0.0695
     49 H         -24.9966   -2.0707  -22.1737 H       1  UNL1        0.0695
     50 H         -21.0093   -3.8385  -23.1289 H       1  UNL1        0.0686
     51 H         -22.5176   -4.2002  -25.7816 H       1  UNL1        0.0593
     52 H         -20.7118   -6.0922  -25.3915 H       1  UNL1        0.0543
     53 H         -19.1241   -4.8081  -23.9952 H       1  UNL1        0.0293
     54 H         -18.8346   -3.7334  -25.3367 H       1  UNL1        0.0293
     55 H         -18.0821   -5.8088  -26.7011 H       1  UNL1        0.0395
     56 H         -18.7296   -7.8414  -25.5759 H       1  UNL1        0.0288
     57 H         -18.4599   -7.1272  -23.9950 H       1  UNL1        0.0288
     58 H         -16.3765   -8.2278  -25.8748 H       1  UNL1        0.0462
     59 H         -16.4037   -8.1974  -24.1121 H       1  UNL1        0.0462
     60 H         -14.8808   -6.3634  -24.9289 H       1  UNL1        0.1487
     61 H         -20.1053   -4.0843  -27.5166 H       1  UNL1        0.1493
     62 H         -20.3814   -4.6465  -29.6141 H       1  UNL1        0.0594
     63 H         -23.0250   -4.8505  -29.2491 H       1  UNL1        0.0290
     64 H         -22.8871   -6.2511  -30.2606 H       1  UNL1        0.0290
     65 H         -22.0560   -3.3861  -30.9419 H       1  UNL1        0.0296
     66 H         -24.1214   -4.2690  -32.7178 H       1  UNL1        0.0232
     67 H         -24.6408   -4.7236  -31.1061 H       1  UNL1        0.0232
     68 H         -24.2365   -3.0493  -31.4556 H       1  UNL1        0.0232
     69 H         -21.8222   -4.1910  -33.3191 H       1  UNL1        0.0232
     70 H         -20.5976   -4.8195  -32.2330 H       1  UNL1        0.0232
     71 H         -21.9444   -5.8469  -32.7273 H       1  UNL1        0.0232
     72 H         -20.9564   -7.2626  -30.6918 H       1  UNL1        0.1495
     73 H         -19.4801   -9.0084  -30.6138 H       1  UNL1        0.0597
     74 H         -17.3545   -8.0998  -32.3102 H       1  UNL1        0.1495
     75 HA        -17.6398   -8.1735  -34.5104 H       1  UNL1        0.0619
     76 H1        -18.6408   -5.5548  -35.3806 H       1  UNL1        0.0580
     77 H2        -17.0413   -6.0380  -34.8879 H       1  UNL1        0.0580
     78 H         -17.5420   -5.4832  -32.7899 H       1  UNL1        0.2095
     79 H         -19.8371   -7.2215  -36.1639 H       1  UNL1        0.1529
     80 H         -22.6267  -11.9563  -36.7353 H       1  UNL1        0.0268
     81 H         -21.4955  -11.4627  -35.4845 H       1  UNL1        0.0268
     82 H         -22.7577  -10.3583  -36.0075 H       1  UNL1        0.0268
     83 H         -20.5913  -12.4188  -38.4348 H       1  UNL1        0.0268
     84 H         -19.3799  -11.1570  -38.6301 H       1  UNL1        0.0268
     85 H         -19.5191  -12.0192  -37.1083 H       1  UNL1        0.0268
     86 H         -22.5466  -10.8838  -39.0660 H       1  UNL1        0.0268
     87 H         -22.6442   -9.2729  -38.3614 H       1  UNL1        0.0268
     88 H         -21.3264   -9.6717  -39.4305 H       1  UNL1        0.0268
     89 H         -17.5939  -10.1206  -30.1341 H       1  UNL1        0.0318
     90 H         -16.6869   -9.6915  -28.0218 H       1  UNL1        0.0233
     91 H         -16.7771   -7.9535  -28.2008 H       1  UNL1        0.0233
     92 H         -18.2419   -8.8713  -27.9444 H       1  UNL1        0.0233
     93 H         -15.2378   -9.2328  -30.0496 H       1  UNL1        0.0233
     94 H         -15.9601   -9.1287  -31.6325 H       1  UNL1        0.0233
     95 H         -15.8412   -7.6818  -30.6307 H       1  UNL1        0.0233
@<TRIPOS>BOND
     1     1     2    1
     2     1    45    1
     3     1    46    1
     4     1    47    1
     5     2     3    1
     6     2    48    1
     7     2    49    1
     8     3     4    1
     9     4     5    2
    10     4     6    1
    11     6     7    2
    12     6    50    1
    13     7     8    1
    14     7    51    1
    15     8     9    1
    16     8    16    1
    17     8    52    1
    18     9    10    1
    19     9    53    1
    20     9    54    1
    21    10    14    1
    22    10    11    1
    23    10    55    1
    24    11    12    1
    25    11    56    1
    26    11    57    1
    27    12    13    1
    28    12    58    1
    29    12    59    1
    30    13    14   am
    31    13    60    1
    32    14    15    2
    33    16    17   am
    34    16    61    1
    35    17    18    2
    36    17    19    1
    37    19    20    1
    38    19    24    1
    39    19    62    1
    40    20    21    1
    41    20    63    1
    42    20    64    1
    43    21    22    1
    44    21    23    1
    45    21    65    1
    46    22    66    1
    47    22    67    1
    48    22    68    1
    49    23    69    1
    50    23    70    1
    51    23    71    1
    52    24    25   am
    53    24    72    1
    54    25    26    2
    55    25    27    1
    56    27    28    1
    57    27    42    1
    58    27    73    1
    59    28    29   am
    60    28    74    1
    61    29    30    2
    62    29    31    1
    63    31    32    1
    64    31    34    1
    65    31    75    1
    66    32    33    1
    67    32    76    1
    68    32    77    1
    69    33    78    1
    70    34    35   am
    71    34    79    1
    72    35    36    2
    73    35    37    1
    74    37    38    1
    75    38    39    1
    76    38    40    1
    77    38    41    1
    78    39    80    1
    79    39    81    1
    80    39    82    1
    81    40    83    1
    82    40    84    1
    83    40    85    1
    84    41    86    1
    85    41    87    1
    86    41    88    1
    87    42    43    1
    88    42    44    1
    89    42    89    1
    90    43    90    1
    91    43    91    1
    92    43    92    1
    93    44    93    1
    94    44    94    1
    95    44    95    1
