
                    3D
 Schrodinger Suite 2019-4.
 95 95  0  0  1  0            999 V2000
  -25.4892   -4.0615  -21.4919 C   0  0  0  0  0  0
  -24.5257   -2.8739  -21.6041 C   0  0  0  0  0  0
  -23.2835   -3.2867  -22.1636 O   0  0  0  0  0  0
  -23.0290   -3.1114  -23.4623 C   0  0  0  0  0  0
  -23.7443   -2.4709  -24.2314 O   0  0  0  0  0  0
  -21.7976   -3.7690  -23.8635 C   0  0  0  0  0  0
  -21.6824   -4.2918  -25.0986 C   0  0  0  0  0  0
  -20.5004   -5.0559  -25.6695 C   0  0  2  0  0  0
  -19.1005   -4.7608  -25.0847 C   0  0  0  0  0  0
  -18.0244   -5.7603  -25.6112 C   0  0  2  0  0  0
  -18.0813   -7.1612  -25.0190 C   0  0  0  0  0  0
  -16.6326   -7.6202  -25.0086 C   0  0  0  0  0  0
  -15.8909   -6.3709  -25.0319 N   0  0  0  0  0  0
  -16.5973   -5.2731  -25.3462 C   0  0  0  0  0  0
  -16.1894   -4.1219  -25.4353 O   0  0  0  0  0  0
  -20.4947   -4.9306  -27.1286 N   0  0  0  0  0  0
  -21.0498   -5.8346  -27.9492 C   0  0  0  0  0  0
  -21.5844   -6.8685  -27.5508 O   0  0  0  0  0  0
  -20.9874   -5.5408  -29.4581 C   0  0  2  0  0  0
  -22.4091   -5.2985  -30.0312 C   0  0  0  0  0  0
  -22.4818   -4.3447  -31.2465 C   0  0  0  0  0  0
  -23.9458   -4.0845  -31.6560 C   0  0  0  0  0  0
  -21.6642   -4.8316  -32.4494 C   0  0  0  0  0  0
  -20.3498   -6.6691  -30.1450 N   0  0  0  0  0  0
  -19.0534   -7.0008  -30.0181 C   0  0  0  0  0  0
  -18.2411   -6.2915  -29.4299 O   0  0  0  0  0  0
  -18.6255   -8.3331  -30.6818 C   0  0  1  0  0  0
  -18.3410   -8.1467  -32.1028 N   0  0  0  0  0  0
  -19.2119   -7.9175  -33.0965 C   0  0  0  0  0  0
  -20.4377   -7.9275  -32.9707 O   0  0  0  0  0  0
  -18.5490   -7.5652  -34.4615 C   0  0  2  0  0  0
  -18.0928   -6.0743  -34.5937 C   0  0  0  0  0  0
  -18.2411   -5.2708  -33.4329 O   0  0  0  0  0  0
  -19.3570   -7.9434  -35.6407 N   0  0  0  0  0  0
  -19.6168   -9.2735  -35.9351 C   0  0  0  0  0  0
  -19.1617  -10.2455  -35.3298 O   0  0  0  0  0  0
  -20.4725   -9.3331  -36.9820 O   0  0  0  0  0  0
  -21.1140  -10.5340  -37.4430 C   0  0  0  0  0  0
  -22.0494  -11.1132  -36.3555 C   0  0  0  0  0  0
  -20.0930  -11.5913  -37.9292 C   0  0  0  0  0  0
  -21.9572  -10.0710  -38.6410 C   0  0  0  0  0  0
  -17.4139   -9.0548  -29.9809 C   0  0  0  0  0  0
  -17.2826   -8.8843  -28.4530 C   0  0  0  0  0  0
  -16.0403   -8.7519  -30.6135 C   0  0  0  0  0  0
  -26.4289   -3.7497  -21.0336 H   0  0  0  0  0  0
  -25.7180   -4.4731  -22.4752 H   0  0  0  0  0  0
  -25.0638   -4.8565  -20.8791 H   0  0  0  0  0  0
  -24.3081   -2.4657  -20.6262 H   0  0  0  0  0  0
  -24.9966   -2.0707  -22.1737 H   0  0  0  0  0  0
  -21.0093   -3.8385  -23.1289 H   0  0  0  0  0  0
  -22.5176   -4.2002  -25.7816 H   0  0  0  0  0  0
  -20.7118   -6.0922  -25.3915 H   0  0  0  0  0  0
  -19.1241   -4.8081  -23.9952 H   0  0  0  0  0  0
  -18.8346   -3.7334  -25.3367 H   0  0  0  0  0  0
  -18.0821   -5.8088  -26.7011 H   0  0  0  0  0  0
  -18.7296   -7.8414  -25.5759 H   0  0  0  0  0  0
  -18.4599   -7.1272  -23.9950 H   0  0  0  0  0  0
  -16.3765   -8.2278  -25.8748 H   0  0  0  0  0  0
  -16.4037   -8.1974  -24.1121 H   0  0  0  0  0  0
  -14.8808   -6.3634  -24.9289 H   0  0  0  0  0  0
  -20.1053   -4.0843  -27.5166 H   0  0  0  0  0  0
  -20.3814   -4.6465  -29.6141 H   0  0  0  0  0  0
  -23.0250   -4.8505  -29.2491 H   0  0  0  0  0  0
  -22.8871   -6.2511  -30.2606 H   0  0  0  0  0  0
  -22.0560   -3.3861  -30.9419 H   0  0  0  0  0  0
  -24.1214   -4.2690  -32.7178 H   0  0  0  0  0  0
  -24.6408   -4.7236  -31.1061 H   0  0  0  0  0  0
  -24.2365   -3.0493  -31.4556 H   0  0  0  0  0  0
  -21.8222   -4.1910  -33.3191 H   0  0  0  0  0  0
  -20.5976   -4.8195  -32.2330 H   0  0  0  0  0  0
  -21.9444   -5.8469  -32.7273 H   0  0  0  0  0  0
  -20.9564   -7.2626  -30.6918 H   0  0  0  0  0  0
  -19.4801   -9.0084  -30.6138 H   0  0  0  0  0  0
  -17.3545   -8.0998  -32.3102 H   0  0  0  0  0  0
  -17.6398   -8.1735  -34.5104 H   0  0  0  0  0  0
  -18.6408   -5.5548  -35.3806 H   0  0  0  0  0  0
  -17.0413   -6.0380  -34.8879 H   0  0  0  0  0  0
  -17.5420   -5.4832  -32.7899 H   0  0  0  0  0  0
  -19.8371   -7.2215  -36.1639 H   0  0  0  0  0  0
  -22.6267  -11.9563  -36.7353 H   0  0  0  0  0  0
  -21.4955  -11.4627  -35.4845 H   0  0  0  0  0  0
  -22.7577  -10.3583  -36.0075 H   0  0  0  0  0  0
  -20.5913  -12.4188  -38.4348 H   0  0  0  0  0  0
  -19.3799  -11.1570  -38.6301 H   0  0  0  0  0  0
  -19.5191  -12.0192  -37.1083 H   0  0  0  0  0  0
  -22.5466  -10.8838  -39.0660 H   0  0  0  0  0  0
  -22.6442   -9.2729  -38.3614 H   0  0  0  0  0  0
  -21.3264   -9.6717  -39.4305 H   0  0  0  0  0  0
  -17.5939  -10.1206  -30.1341 H   0  0  0  0  0  0
  -16.6869   -9.6915  -28.0218 H   0  0  0  0  0  0
  -16.7771   -7.9535  -28.2008 H   0  0  0  0  0  0
  -18.2419   -8.8713  -27.9444 H   0  0  0  0  0  0
  -15.2378   -9.2328  -30.0496 H   0  0  0  0  0  0
  -15.9601   -9.1287  -31.6325 H   0  0  0  0  0  0
  -15.8412   -7.6818  -30.6307 H   0  0  0  0  0  0
  1  2  1  0  0  0
  1 45  1  0  0  0
  1 46  1  0  0  0
  1 47  1  0  0  0
  2  3  1  0  0  0
  2 48  1  0  0  0
  2 49  1  0  0  0
  3  4  1  0  0  0
  4  5  2  0  0  0
  4  6  1  0  0  0
  6  7  2  0  0  0
  6 50  1  0  0  0
  7  8  1  0  0  0
  7 51  1  0  0  0
  8  9  1  0  0  0
  8 16  1  0  0  0
  8 52  1  0  0  0
  9 10  1  0  0  0
  9 53  1  0  0  0
  9 54  1  0  0  0
 10 14  1  0  0  0
 10 11  1  0  0  0
 10 55  1  0  0  0
 11 12  1  0  0  0
 11 56  1  0  0  0
 11 57  1  0  0  0
 12 13  1  0  0  0
 12 58  1  0  0  0
 12 59  1  0  0  0
 13 14  1  0  0  0
 13 60  1  0  0  0
 14 15  2  0  0  0
 16 17  1  0  0  0
 16 61  1  0  0  0
 17 18  2  0  0  0
 17 19  1  0  0  0
 19 20  1  0  0  0
 19 24  1  0  0  0
 19 62  1  0  0  0
 20 21  1  0  0  0
 20 63  1  0  0  0
 20 64  1  0  0  0
 21 22  1  0  0  0
 21 23  1  0  0  0
 21 65  1  0  0  0
 22 66  1  0  0  0
 22 67  1  0  0  0
 22 68  1  0  0  0
 23 69  1  0  0  0
 23 70  1  0  0  0
 23 71  1  0  0  0
 24 25  1  0  0  0
 24 72  1  0  0  0
 25 26  2  0  0  0
 25 27  1  0  0  0
 27 28  1  0  0  0
 27 42  1  0  0  0
 27 73  1  0  0  0
 28 29  1  0  0  0
 28 74  1  0  0  0
 29 30  2  0  0  0
 29 31  1  0  0  0
 31 32  1  0  0  0
 31 34  1  0  0  0
 31 75  1  0  0  0
 32 33  1  0  0  0
 32 76  1  0  0  0
 32 77  1  0  0  0
 33 78  1  0  0  0
 34 35  1  0  0  0
 34 79  1  0  0  0
 35 36  2  0  0  0
 35 37  1  0  0  0
 37 38  1  0  0  0
 38 39  1  0  0  0
 38 40  1  0  0  0
 38 41  1  0  0  0
 39 80  1  0  0  0
 39 81  1  0  0  0
 39 82  1  0  0  0
 40 83  1  0  0  0
 40 84  1  0  0  0
 40 85  1  0  0  0
 41 86  1  0  0  0
 41 87  1  0  0  0
 41 88  1  0  0  0
 42 43  1  0  0  0
 42 44  1  0  0  0
 42 89  1  0  0  0
 43 90  1  0  0  0
 43 91  1  0  0  0
 43 92  1  0  0  0
 44 93  1  0  0  0
 44 94  1  0  0  0
 44 95  1  0  0  0
M  END
$$$$
