
                    3D
 Schrodinger Suite 2019-4.
 63 65  0  0  1  0            999 V2000
  -21.9416   -6.0621  -31.6931 C   0  0  0  0  0  0
  -21.1082   -6.9224  -30.7275 C   0  0  0  0  0  0
  -21.9170   -8.1926  -30.3696 C   0  0  0  0  0  0
  -19.8136   -7.2961  -31.4763 C   0  0  0  0  0  0
  -20.8501   -6.0992  -29.5340 N   0  0  0  0  0  0
  -20.1433   -6.4213  -28.4319 C   0  0  0  0  0  0
  -19.5419   -7.4911  -28.3395 O   0  0  0  0  0  0
  -20.0839   -5.3486  -27.2798 C   0  0  2  0  0  0
  -18.9191   -5.5369  -26.3059 C   0  0  0  0  0  0
  -18.5331   -6.7820  -25.7784 C   0  0  0  0  0  0
  -17.3687   -6.8667  -25.0177 C   0  0  0  0  0  0
  -16.6120   -5.7857  -24.7074 N   0  0  0  0  0  0
  -17.0261   -4.5759  -25.1516 C   0  0  0  0  0  0
  -18.1578   -4.4130  -25.9500 C   0  0  0  0  0  0
  -21.4178   -4.9477  -26.6661 N   0  0  0  0  0  0
  -21.6653   -4.7700  -25.3146 C   0  0  0  0  0  0
  -20.8405   -4.9357  -24.4151 O   0  0  0  0  0  0
  -22.9730   -4.3199  -24.8822 C   0  0  0  0  0  0
  -23.3332   -3.3349  -23.9670 C   0  0  0  0  0  0
  -24.7266   -3.3354  -23.9003 C   0  0  0  0  0  0
  -25.1519   -4.3799  -24.7047 C   0  0  0  0  0  0
  -24.0874   -4.9840  -25.2891 O   0  0  0  0  0  0
  -22.3872   -4.5115  -27.6010 C   0  0  0  0  0  0
  -23.4013   -5.3580  -28.0618 C   0  0  0  0  0  0
  -24.2027   -4.9516  -29.1278 C   0  0  0  0  0  0
  -23.9995   -3.7025  -29.7401 C   0  0  0  0  0  0
  -24.7458   -3.2796  -31.0293 C   0  0  0  0  0  0
  -25.5721   -4.4208  -31.6666 C   0  0  0  0  0  0
  -23.7263   -2.7981  -32.0914 C   0  0  0  0  0  0
  -25.7250   -2.1377  -30.7095 C   0  0  0  0  0  0
  -23.0559   -2.8289  -29.1840 C   0  0  0  0  0  0
  -22.2526   -3.2292  -28.1271 C   0  0  0  0  0  0
  -21.4562   -5.1042  -31.8825 H   0  0  0  0  0  0
  -22.0876   -6.5362  -32.6621 H   0  0  0  0  0  0
  -22.9278   -5.8626  -31.2865 H   0  0  0  0  0  0
  -21.3559   -8.8598  -29.7153 H   0  0  0  0  0  0
  -22.8477   -7.9411  -29.8596 H   0  0  0  0  0  0
  -22.1827   -8.7634  -31.2590 H   0  0  0  0  0  0
  -19.0627   -7.7591  -30.8362 H   0  0  0  0  0  0
  -20.0114   -7.9928  -32.2902 H   0  0  0  0  0  0
  -19.3783   -6.4057  -31.9227 H   0  0  0  0  0  0
  -21.3330   -5.2115  -29.5209 H   0  0  0  0  0  0
  -19.7709   -4.4570  -27.8232 H   0  0  0  0  0  0
  -19.1000   -7.6807  -25.9720 H   0  0  0  0  0  0
  -17.0263   -7.8186  -24.6377 H   0  0  0  0  0  0
  -16.4126   -3.7292  -24.8857 H   0  0  0  0  0  0
  -18.4195   -3.4269  -26.3056 H   0  0  0  0  0  0
  -22.6579   -2.6793  -23.4371 H   0  0  0  0  0  0
  -25.3514   -2.6757  -23.3140 H   0  0  0  0  0  0
  -26.1249   -4.7810  -24.9546 H   0  0  0  0  0  0
  -23.5170   -6.3498  -27.6474 H   0  0  0  0  0  0
  -24.9318   -5.6543  -29.5017 H   0  0  0  0  0  0
  -26.0521   -4.1048  -32.5930 H   0  0  0  0  0  0
  -24.9615   -5.2877  -31.9067 H   0  0  0  0  0  0
  -26.3634   -4.7530  -30.9979 H   0  0  0  0  0  0
  -24.2132   -2.5387  -33.0225 H   0  0  0  0  0  0
  -23.1737   -1.9111  -31.7808 H   0  0  0  0  0  0
  -23.0008   -3.5692  -32.3368 H   0  0  0  0  0  0
  -26.2612   -1.7991  -31.5981 H   0  0  0  0  0  0
  -26.4692   -2.4698  -29.9855 H   0  0  0  0  0  0
  -25.1992   -1.2733  -30.3071 H   0  0  0  0  0  0
  -22.8994   -1.8421  -29.5935 H   0  0  0  0  0  0
  -21.4909   -2.5605  -27.7533 H   0  0  0  0  0  0
  1  2  1  0  0  0
  1 33  1  0  0  0
  1 34  1  0  0  0
  1 35  1  0  0  0
  2  3  1  0  0  0
  2  4  1  0  0  0
  2  5  1  0  0  0
  3 36  1  0  0  0
  3 37  1  0  0  0
  3 38  1  0  0  0
  4 39  1  0  0  0
  4 40  1  0  0  0
  4 41  1  0  0  0
  5  6  1  0  0  0
  5 42  1  0  0  0
  6  7  2  0  0  0
  6  8  1  0  0  0
  8  9  1  0  0  0
  8 15  1  0  0  0
  8 43  1  0  0  0
  9 14  1  0  0  0
  9 10  2  0  0  0
 10 11  1  0  0  0
 10 44  1  0  0  0
 11 12  2  0  0  0
 11 45  1  0  0  0
 12 13  1  0  0  0
 13 14  2  0  0  0
 13 46  1  0  0  0
 14 47  1  0  0  0
 15 16  1  0  0  0
 15 23  1  0  0  0
 16 17  2  0  0  0
 16 18  1  0  0  0
 18 22  1  0  0  0
 18 19  2  0  0  0
 19 20  1  0  0  0
 19 48  1  0  0  0
 20 21  2  0  0  0
 20 49  1  0  0  0
 21 22  1  0  0  0
 21 50  1  0  0  0
 23 32  1  0  0  0
 23 24  2  0  0  0
 24 25  1  0  0  0
 24 51  1  0  0  0
 25 26  2  0  0  0
 25 52  1  0  0  0
 26 27  1  0  0  0
 26 31  1  0  0  0
 27 28  1  0  0  0
 27 29  1  0  0  0
 27 30  1  0  0  0
 28 53  1  0  0  0
 28 54  1  0  0  0
 28 55  1  0  0  0
 29 56  1  0  0  0
 29 57  1  0  0  0
 29 58  1  0  0  0
 30 59  1  0  0  0
 30 60  1  0  0  0
 30 61  1  0  0  0
 31 32  2  0  0  0
 31 62  1  0  0  0
 32 63  1  0  0  0
M  END
$$$$
