@<TRIPOS>MOLECULE
*****
 63 65 0 0 0
SMALL
GASTEIGER
****
Schrodinger Suite 2019-4.
@<TRIPOS>ATOM
      1 C         -21.9416   -6.0621  -31.6931 C.3     1  UNL1       -0.0442
      2 C         -21.1082   -6.9224  -30.7275 C.3     1  UNL1        0.0262
      3 C         -21.9170   -8.1926  -30.3696 C.3     1  UNL1       -0.0442
      4 C         -19.8136   -7.2961  -31.4763 C.3     1  UNL1       -0.0442
      5 N         -20.8501   -6.0992  -29.5340 N.am    1  UNL1       -0.3087
      6 C         -20.1433   -6.4213  -28.4319 C.2     1  UNL1        0.2388
      7 O         -19.5419   -7.4911  -28.3395 O.2     1  UNL1       -0.2734
      8 C         -20.0839   -5.3486  -27.2798 C.3     1  UNL1        0.1325
      9 C         -18.9191   -5.5369  -26.3059 C.ar    1  UNL1       -0.0150
     10 C         -18.5331   -6.7820  -25.7784 C.ar    1  UNL1       -0.0382
     11 C         -17.3687   -6.8667  -25.0177 C.ar    1  UNL1        0.0279
     12 N         -16.6120   -5.7857  -24.7074 N.ar    1  UNL1       -0.2632
     13 C         -17.0261   -4.5759  -25.1516 C.ar    1  UNL1        0.0279
     14 C         -18.1578   -4.4130  -25.9500 C.ar    1  UNL1       -0.0382
     15 N         -21.4178   -4.9477  -26.6661 N.am    1  UNL1       -0.2489
     16 C         -21.6653   -4.7700  -25.3146 C.2     1  UNL1        0.2870
     17 O         -20.8405   -4.9357  -24.4151 O.2     1  UNL1       -0.2662
     18 C         -22.9730   -4.3199  -24.8822 C.ar    1  UNL1        0.1896
     19 C         -23.3332   -3.3349  -23.9670 C.ar    1  UNL1       -0.0113
     20 C         -24.7266   -3.3354  -23.9003 C.ar    1  UNL1       -0.0231
     21 C         -25.1519   -4.3799  -24.7047 C.ar    1  UNL1        0.0928
     22 O         -24.0874   -4.9840  -25.2891 O.2     1  UNL1       -0.4583
     23 C         -22.3872   -4.5115  -27.6010 C.ar    1  UNL1        0.0379
     24 C         -23.4013   -5.3580  -28.0618 C.ar    1  UNL1       -0.0400
     25 C         -24.2027   -4.9516  -29.1278 C.ar    1  UNL1       -0.0563
     26 C         -23.9995   -3.7025  -29.7401 C.ar    1  UNL1       -0.0419
     27 C         -24.7458   -3.2796  -31.0293 C.3     1  UNL1       -0.0127
     28 C         -25.5721   -4.4208  -31.6666 C.3     1  UNL1       -0.0560
     29 C         -23.7263   -2.7981  -32.0914 C.3     1  UNL1       -0.0560
     30 C         -25.7250   -2.1377  -30.7095 C.3     1  UNL1       -0.0560
     31 C         -23.0559   -2.8289  -29.1840 C.ar    1  UNL1       -0.0563
     32 C         -22.2526   -3.2292  -28.1271 C.ar    1  UNL1       -0.0400
     33 H         -21.4562   -5.1042  -31.8825 H       1  UNL1        0.0250
     34 H         -22.0876   -6.5362  -32.6621 H       1  UNL1        0.0250
     35 H         -22.9278   -5.8626  -31.2865 H       1  UNL1        0.0250
     36 H         -21.3559   -8.8598  -29.7153 H       1  UNL1        0.0250
     37 H         -22.8477   -7.9411  -29.8596 H       1  UNL1        0.0250
     38 H         -22.1827   -8.7634  -31.2590 H       1  UNL1        0.0250
     39 H         -19.0627   -7.7591  -30.8362 H       1  UNL1        0.0250
     40 H         -20.0114   -7.9928  -32.2902 H       1  UNL1        0.0250
     41 H         -19.3783   -6.4057  -31.9227 H       1  UNL1        0.0250
     42 H         -21.3330   -5.2115  -29.5209 H       1  UNL1        0.1493
     43 H         -19.7709   -4.4570  -27.8232 H       1  UNL1        0.0651
     44 H         -19.1000   -7.6807  -25.9720 H       1  UNL1        0.0636
     45 H         -17.0263   -7.8186  -24.6377 H       1  UNL1        0.0829
     46 H         -16.4126   -3.7292  -24.8857 H       1  UNL1        0.0829
     47 H         -18.4195   -3.4269  -26.3056 H       1  UNL1        0.0636
     48 H         -22.6579   -2.6793  -23.4371 H       1  UNL1        0.0657
     49 H         -25.3514   -2.6757  -23.3140 H       1  UNL1        0.0649
     50 H         -26.1249   -4.7810  -24.9546 H       1  UNL1        0.1029
     51 H         -23.5170   -6.3498  -27.6474 H       1  UNL1        0.0636
     52 H         -24.9318   -5.6543  -29.5017 H       1  UNL1        0.0621
     53 H         -26.0521   -4.1048  -32.5930 H       1  UNL1        0.0238
     54 H         -24.9615   -5.2877  -31.9067 H       1  UNL1        0.0238
     55 H         -26.3634   -4.7530  -30.9979 H       1  UNL1        0.0238
     56 H         -24.2132   -2.5387  -33.0225 H       1  UNL1        0.0238
     57 H         -23.1737   -1.9111  -31.7808 H       1  UNL1        0.0238
     58 H         -23.0008   -3.5692  -32.3368 H       1  UNL1        0.0238
     59 H         -26.2612   -1.7991  -31.5981 H       1  UNL1        0.0238
     60 H         -26.4692   -2.4698  -29.9855 H       1  UNL1        0.0238
     61 H         -25.1992   -1.2733  -30.3071 H       1  UNL1        0.0238
     62 H         -22.8994   -1.8421  -29.5935 H       1  UNL1        0.0621
     63 H         -21.4909   -2.5605  -27.7533 H       1  UNL1        0.0636
@<TRIPOS>BOND
     1     1     2    1
     2     1    33    1
     3     1    34    1
     4     1    35    1
     5     2     3    1
     6     2     4    1
     7     2     5    1
     8     3    36    1
     9     3    37    1
    10     3    38    1
    11     4    39    1
    12     4    40    1
    13     4    41    1
    14     5     6   am
    15     5    42    1
    16     6     7    2
    17     6     8    1
    18     8     9    1
    19     8    15    1
    20     8    43    1
    21     9    14   ar
    22     9    10   ar
    23    10    11   ar
    24    10    44    1
    25    11    12   ar
    26    11    45    1
    27    12    13   ar
    28    13    14   ar
    29    13    46    1
    30    14    47    1
    31    15    16   am
    32    15    23    1
    33    16    17    2
    34    16    18    1
    35    18    22   ar
    36    18    19   ar
    37    19    20   ar
    38    19    48    1
    39    20    21   ar
    40    20    49    1
    41    21    22   ar
    42    21    50    1
    43    23    32   ar
    44    23    24   ar
    45    24    25   ar
    46    24    51    1
    47    25    26   ar
    48    25    52    1
    49    26    27    1
    50    26    31   ar
    51    27    28    1
    52    27    29    1
    53    27    30    1
    54    28    53    1
    55    28    54    1
    56    28    55    1
    57    29    56    1
    58    29    57    1
    59    29    58    1
    60    30    59    1
    61    30    60    1
    62    30    61    1
    63    31    32   ar
    64    31    62    1
    65    32    63    1
