@<TRIPOS>MOLECULE
*****
 76 77 0 0 0
SMALL
GASTEIGER
****
Schrodinger Suite 2019-4.
@<TRIPOS>ATOM
      1 C         -20.0117  -12.0139  -29.6454 C.3     0  UNK0        0.0122
      2 C         -21.1030  -11.4096  -30.5206 C.2     0  UNK0        0.2105
      3 O         -20.8988  -11.2536  -31.7234 O.2     0  UNK0       -0.2761
      4 N         -22.2549  -11.0858  -29.9123 N.am    1  ALA1       -0.3045
      5 CA        -23.4337  -10.5526  -30.6019 C.3     1  ALA1        0.0966
      6 CB        -24.3589  -11.7176  -30.9925 C.3     1  ALA1       -0.0381
      7 C         -24.1865   -9.4735  -29.8037 C.2     1  ALA1        0.2337
      8 O         -25.1829   -8.9601  -30.3102 O.2     1  ALA1       -0.2738
      9 N         -23.7067   -9.1314  -28.5969 N.am    2  VAL2       -0.3022
     10 CA        -24.2854   -8.1064  -27.7270 C.3     2  VAL2        0.1017
     11 C         -23.2260   -7.0283  -27.4344 C.2     2  VAL2        0.2342
     12 O         -22.0630   -7.3601  -27.1897 O.2     2  VAL2       -0.2738
     13 N         -23.6535   -5.7582  -27.4933 N.am    3  PHE3       -0.3025
     14 CA        -22.7976   -4.5904  -27.3105 C.3     3  PHE3        0.0997
     15 CB        -23.1719   -3.4178  -28.2535 C.3     3  PHE3       -0.0231
     16 CG        -22.6736   -3.5453  -29.7164 C.3     3  PHE3       -0.0389
     17 CD2       -22.8966   -2.2265  -30.4917 C.3     3  PHE3       -0.0501
     18 CE2       -22.3347   -2.2958  -31.9279 C.3     3  PHE3       -0.0528
     19 CZ        -22.9110   -3.4906  -32.7103 C.3     3  PHE3       -0.0530
     20 CE1       -22.7437   -4.8137  -31.9381 C.3     3  PHE3       -0.0528
     21 CD1       -23.3144   -4.7121  -30.5108 C.3     3  PHE3       -0.0501
     22 C         -22.8297   -4.1665  -25.8341 C.2     3  PHE3        0.2339
     23 O         -23.6761   -3.3602  -25.4512 O.2     3  PHE3       -0.2738
     24 N         -21.9010   -4.7588  -25.0547 N.am    4  HIS4       -0.3041
     25 CA        -21.4032   -4.4626  -23.6881 C.3     4  HIS4        0.0838
     26 C         -22.4216   -3.7604  -22.7942 C.2     4  HIS4        0.1408
     27 O         -22.1051   -2.9619  -21.9110 O.2     4  HIS4       -0.2991
     28 CB        -20.0534   -3.6983  -23.7772 C.3     4  HIS4        0.0141
     29 CG        -19.0232   -4.3341  -24.6846 C.ar    4  HIS4        0.0375
     30 CD2       -18.7539   -4.1380  -26.0203 C.ar    4  HIS4        0.0485
     31 NE2       -17.6936   -4.9566  -26.4144 N.ar    4  HIS4       -0.2440
     32 CE1       -17.3550   -5.6137  -25.3133 C.ar    4  HIS4        0.0935
     33 ND1       -18.1125   -5.2885  -24.2629 N.ar    4  HIS4       -0.3481
     34 CB        -24.8189   -8.7269  -26.4002 C.3     2  VAL2       -0.0197
     35 CG1       -25.6000   -7.7137  -25.5433 C.3     2  VAL2       -0.0605
     36 CG2       -23.7550   -9.4339  -25.5335 C.3     2  VAL2       -0.0605
     37 H         -20.3450  -12.1597  -28.6177 H       0  UNK0        0.0322
     38 H         -19.7037  -12.9778  -30.0475 H       0  UNK0        0.0322
     39 H         -19.1405  -11.3611  -29.6330 H       0  UNK0        0.0322
     40 H         -22.3442  -11.2470  -28.9195 H       1  ALA1        0.1494
     41 HA        -23.1149  -10.0538  -31.5194 H       1  ALA1        0.0592
     42 HB1       -25.2521  -11.3646  -31.5101 H       1  ALA1        0.0252
     43 HB2       -23.8538  -12.4076  -31.6701 H       1  ALA1        0.0252
     44 HB3       -24.6857  -12.2806  -30.1176 H       1  ALA1        0.0252
     45 H         -22.8496   -9.5472  -28.2627 H       2  VAL2        0.1495
     46 HA        -25.1252   -7.6237  -28.2321 H       2  VAL2        0.0597
     47 H         -24.6289   -5.5687  -27.6767 H       3  PHE3        0.1495
     48 HA        -21.7622   -4.8499  -27.5419 H       3  PHE3        0.0594
     49 HB1       -22.7307   -2.5072  -27.8422 H       3  PHE3        0.0290
     50 HB2       -24.2494   -3.2513  -28.2340 H       3  PHE3        0.0290
     51 HG        -21.5955   -3.7221  -29.6976 H       3  PHE3        0.0301
     52 HD21      -22.4302   -1.3979  -29.9548 H       3  PHE3        0.0268
     53 HD22      -23.9609   -1.9799  -30.5089 H       3  PHE3        0.0268
     54 HE21      -21.2457   -2.3746  -31.9112 H       3  PHE3        0.0265
     55 HE22      -22.5592   -1.3658  -32.4461 H       3  PHE3        0.0265
     56 HZ1       -22.4258   -3.5631  -33.6852 H       3  PHE3        0.0265
     57 HZ2       -23.9701   -3.3166  -32.9074 H       3  PHE3        0.0265
     58 HE11      -21.6851   -5.0743  -31.8858 H       3  PHE3        0.0265
     59 HE12      -23.2285   -5.6295  -32.4719 H       3  PHE3        0.0265
     60 HD11      -24.3989   -4.5933  -30.5386 H       3  PHE3        0.0268
     61 HD12      -23.1480   -5.6610  -30.0084 H       3  PHE3        0.0268
     62 H         -21.3320   -5.4451  -25.5349 H       4  HIS4        0.1494
     63 HA        -21.2045   -5.4360  -23.2358 H       4  HIS4        0.0578
     64 H         -23.4640   -4.0283  -22.9672 H       4  HIS4        0.1046
     65 HB1       -19.6105   -3.5891  -22.7849 H       4  HIS4        0.0350
     66 HB2       -20.2234   -2.6821  -24.1412 H       4  HIS4        0.0350
     67 HD2       -19.2394   -3.4673  -26.7114 H       4  HIS4        0.0848
     68 HE1       -16.5468   -6.3317  -25.2741 H       4  HIS4        0.1027
     69 HD1       -18.0215   -5.6647  -23.3288 H       4  HIS4        0.1665
     70 HB        -25.5374   -9.4948  -26.6937 H       2  VAL2        0.0318
     71 HG11      -26.0733   -8.2030  -24.6923 H       2  VAL2        0.0233
     72 HG12      -24.9551   -6.9277  -25.1479 H       2  VAL2        0.0233
     73 HG13      -26.3910   -7.2345  -26.1207 H       2  VAL2        0.0233
     74 HG21      -24.2183   -9.9247  -24.6775 H       2  VAL2        0.0233
     75 HG22      -23.2282  -10.2036  -26.0965 H       2  VAL2        0.0233
     76 HG23      -23.0117   -8.7403  -25.1400 H       2  VAL2        0.0233
@<TRIPOS>BOND
     1     1     2    1
     2     1    37    1
     3     1    38    1
     4     1    39    1
     5     2     3    2
     6     2     4   am
     7     4     5    1
     8     4    40    1
     9     5     6    1
    10     5     7    1
    11     5    41    1
    12     6    42    1
    13     6    43    1
    14     6    44    1
    15     7     8    2
    16     7     9   am
    17     9    10    1
    18     9    45    1
    19    10    11    1
    20    10    34    1
    21    10    46    1
    22    11    12    2
    23    11    13   am
    24    13    14    1
    25    13    47    1
    26    14    15    1
    27    14    22    1
    28    14    48    1
    29    15    16    1
    30    15    49    1
    31    15    50    1
    32    16    21    1
    33    16    17    1
    34    16    51    1
    35    17    18    1
    36    17    52    1
    37    17    53    1
    38    18    19    1
    39    18    54    1
    40    18    55    1
    41    19    20    1
    42    19    56    1
    43    19    57    1
    44    20    21    1
    45    20    58    1
    46    20    59    1
    47    21    60    1
    48    21    61    1
    49    22    23    2
    50    22    24   am
    51    24    25    1
    52    24    62    1
    53    25    26    1
    54    25    28    1
    55    25    63    1
    56    26    27    2
    57    26    64    1
    58    28    29    1
    59    28    65    1
    60    28    66    1
    61    29    33   ar
    62    29    30   ar
    63    30    31   ar
    64    30    67    1
    65    31    32   ar
    66    32    33   ar
    67    32    68    1
    68    33    69    1
    69    34    35    1
    70    34    36    1
    71    34    70    1
    72    35    71    1
    73    35    72    1
    74    35    73    1
    75    36    74    1
    76    36    75    1
    77    36    76    1
