
                    3D
 Schrodinger Suite 2019-4.
 76 77  0  0  1  0            999 V2000
  -20.0117  -12.0139  -29.6454 C   0  0  0  0  0  0
  -21.1030  -11.4096  -30.5206 C   0  0  0  0  0  0
  -20.8988  -11.2536  -31.7234 O   0  0  0  0  0  0
  -22.2549  -11.0858  -29.9123 N   0  0  0  0  0  0
  -23.4337  -10.5526  -30.6019 C   0  0  1  0  0  0
  -24.3589  -11.7176  -30.9925 C   0  0  0  0  0  0
  -24.1865   -9.4735  -29.8037 C   0  0  0  0  0  0
  -25.1829   -8.9601  -30.3102 O   0  0  0  0  0  0
  -23.7067   -9.1314  -28.5969 N   0  0  0  0  0  0
  -24.2854   -8.1064  -27.7270 C   0  0  2  0  0  0
  -23.2260   -7.0283  -27.4344 C   0  0  0  0  0  0
  -22.0630   -7.3601  -27.1897 O   0  0  0  0  0  0
  -23.6535   -5.7582  -27.4933 N   0  0  0  0  0  0
  -22.7976   -4.5904  -27.3105 C   0  0  1  0  0  0
  -23.1719   -3.4178  -28.2535 C   0  0  0  0  0  0
  -22.6736   -3.5453  -29.7164 C   0  0  0  0  0  0
  -22.8966   -2.2265  -30.4917 C   0  0  0  0  0  0
  -22.3347   -2.2958  -31.9279 C   0  0  0  0  0  0
  -22.9110   -3.4906  -32.7103 C   0  0  0  0  0  0
  -22.7437   -4.8137  -31.9381 C   0  0  0  0  0  0
  -23.3144   -4.7121  -30.5108 C   0  0  0  0  0  0
  -22.8297   -4.1665  -25.8341 C   0  0  0  0  0  0
  -23.6761   -3.3602  -25.4512 O   0  0  0  0  0  0
  -21.9010   -4.7588  -25.0547 N   0  0  0  0  0  0
  -21.4032   -4.4626  -23.6881 C   0  0  2  0  0  0
  -22.4216   -3.7604  -22.7942 C   0  0  0  0  0  0
  -22.1051   -2.9619  -21.9110 O   0  0  0  0  0  0
  -20.0534   -3.6983  -23.7772 C   0  0  0  0  0  0
  -19.0232   -4.3341  -24.6846 C   0  0  0  0  0  0
  -18.7539   -4.1380  -26.0203 C   0  0  0  0  0  0
  -17.6936   -4.9566  -26.4144 N   0  0  0  0  0  0
  -17.3550   -5.6137  -25.3133 C   0  0  0  0  0  0
  -18.1125   -5.2885  -24.2629 N   0  0  0  0  0  0
  -24.8189   -8.7269  -26.4002 C   0  0  0  0  0  0
  -25.6000   -7.7137  -25.5433 C   0  0  0  0  0  0
  -23.7550   -9.4339  -25.5335 C   0  0  0  0  0  0
  -20.3450  -12.1597  -28.6177 H   0  0  0  0  0  0
  -19.7037  -12.9778  -30.0475 H   0  0  0  0  0  0
  -19.1405  -11.3611  -29.6330 H   0  0  0  0  0  0
  -22.3442  -11.2470  -28.9195 H   0  0  0  0  0  0
  -23.1149  -10.0538  -31.5194 H   0  0  0  0  0  0
  -25.2521  -11.3646  -31.5101 H   0  0  0  0  0  0
  -23.8538  -12.4076  -31.6701 H   0  0  0  0  0  0
  -24.6857  -12.2806  -30.1176 H   0  0  0  0  0  0
  -22.8496   -9.5472  -28.2627 H   0  0  0  0  0  0
  -25.1252   -7.6237  -28.2321 H   0  0  0  0  0  0
  -24.6289   -5.5687  -27.6767 H   0  0  0  0  0  0
  -21.7622   -4.8499  -27.5419 H   0  0  0  0  0  0
  -22.7307   -2.5072  -27.8422 H   0  0  0  0  0  0
  -24.2494   -3.2513  -28.2340 H   0  0  0  0  0  0
  -21.5955   -3.7221  -29.6976 H   0  0  0  0  0  0
  -22.4302   -1.3979  -29.9548 H   0  0  0  0  0  0
  -23.9609   -1.9799  -30.5089 H   0  0  0  0  0  0
  -21.2457   -2.3746  -31.9112 H   0  0  0  0  0  0
  -22.5592   -1.3658  -32.4461 H   0  0  0  0  0  0
  -22.4258   -3.5631  -33.6852 H   0  0  0  0  0  0
  -23.9701   -3.3166  -32.9074 H   0  0  0  0  0  0
  -21.6851   -5.0743  -31.8858 H   0  0  0  0  0  0
  -23.2285   -5.6295  -32.4719 H   0  0  0  0  0  0
  -24.3989   -4.5933  -30.5386 H   0  0  0  0  0  0
  -23.1480   -5.6610  -30.0084 H   0  0  0  0  0  0
  -21.3320   -5.4451  -25.5349 H   0  0  0  0  0  0
  -21.2045   -5.4360  -23.2358 H   0  0  0  0  0  0
  -23.4640   -4.0283  -22.9672 H   0  0  0  0  0  0
  -19.6105   -3.5891  -22.7849 H   0  0  0  0  0  0
  -20.2234   -2.6821  -24.1412 H   0  0  0  0  0  0
  -19.2394   -3.4673  -26.7114 H   0  0  0  0  0  0
  -16.5468   -6.3317  -25.2741 H   0  0  0  0  0  0
  -18.0215   -5.6647  -23.3288 H   0  0  0  0  0  0
  -25.5374   -9.4948  -26.6937 H   0  0  0  0  0  0
  -26.0733   -8.2030  -24.6923 H   0  0  0  0  0  0
  -24.9551   -6.9277  -25.1479 H   0  0  0  0  0  0
  -26.3910   -7.2345  -26.1207 H   0  0  0  0  0  0
  -24.2183   -9.9247  -24.6775 H   0  0  0  0  0  0
  -23.2282  -10.2036  -26.0965 H   0  0  0  0  0  0
  -23.0117   -8.7403  -25.1400 H   0  0  0  0  0  0
  1  2  1  0  0  0
  1 37  1  0  0  0
  1 38  1  0  0  0
  1 39  1  0  0  0
  2  3  2  0  0  0
  2  4  1  0  0  0
  4  5  1  0  0  0
  4 40  1  0  0  0
  5  6  1  0  0  0
  5  7  1  0  0  0
  5 41  1  0  0  0
  6 42  1  0  0  0
  6 43  1  0  0  0
  6 44  1  0  0  0
  7  8  2  0  0  0
  7  9  1  0  0  0
  9 10  1  0  0  0
  9 45  1  0  0  0
 10 11  1  0  0  0
 10 34  1  0  0  0
 10 46  1  0  0  0
 11 12  2  0  0  0
 11 13  1  0  0  0
 13 14  1  0  0  0
 13 47  1  0  0  0
 14 15  1  0  0  0
 14 22  1  0  0  0
 14 48  1  0  0  0
 15 16  1  0  0  0
 15 49  1  0  0  0
 15 50  1  0  0  0
 16 21  1  0  0  0
 16 17  1  0  0  0
 16 51  1  0  0  0
 17 18  1  0  0  0
 17 52  1  0  0  0
 17 53  1  0  0  0
 18 19  1  0  0  0
 18 54  1  0  0  0
 18 55  1  0  0  0
 19 20  1  0  0  0
 19 56  1  0  0  0
 19 57  1  0  0  0
 20 21  1  0  0  0
 20 58  1  0  0  0
 20 59  1  0  0  0
 21 60  1  0  0  0
 21 61  1  0  0  0
 22 23  2  0  0  0
 22 24  1  0  0  0
 24 25  1  0  0  0
 24 62  1  0  0  0
 25 26  1  0  0  0
 25 28  1  0  0  0
 25 63  1  0  0  0
 26 27  2  0  0  0
 26 64  1  0  0  0
 28 29  1  0  0  0
 28 65  1  0  0  0
 28 66  1  0  0  0
 29 33  1  0  0  0
 29 30  2  0  0  0
 30 31  1  0  0  0
 30 67  1  0  0  0
 31 32  2  0  0  0
 32 33  1  0  0  0
 32 68  1  0  0  0
 33 69  1  0  0  0
 34 35  1  0  0  0
 34 36  1  0  0  0
 34 70  1  0  0  0
 35 71  1  0  0  0
 35 72  1  0  0  0
 35 73  1  0  0  0
 36 74  1  0  0  0
 36 75  1  0  0  0
 36 76  1  0  0  0
M  END
$$$$
