@<TRIPOS>MOLECULE
*****
 85 88 0 0 0
SMALL
GASTEIGER
****
Schrodinger Suite 2019-4.
@<TRIPOS>ATOM
      1 C         -16.8762   -4.7819  -35.0851 C.3     1  UNL1       -0.0626
      2 C         -17.5881   -5.9085  -34.3398 C.3     1  UNL1       -0.0446
      3 C         -17.8333   -7.0931  -35.2720 C.3     1  UNL1       -0.0626
      4 C         -18.9300   -5.4162  -33.8142 C.3     1  UNL1       -0.0236
      5 C         -18.8441   -4.3560  -32.7079 C.3     1  UNL1        0.0996
      6 N         -19.9977   -3.4978  -32.8000 N.am    1  UNL1       -0.3025
      7 C         -21.2517   -3.8837  -32.5947 C.2     1  UNL1        0.2342
      8 O         -21.6514   -5.0476  -32.6589 O.2     1  UNL1       -0.2738
      9 C         -22.1666   -2.7361  -32.2483 C.3     1  UNL1        0.1018
     10 N         -22.5749   -2.7330  -30.8564 N.am    1  UNL1       -0.3010
     11 C         -23.3665   -3.5897  -30.2095 C.2     1  UNL1        0.2513
     12 O         -23.8877   -4.5787  -30.7214 O.2     1  UNL1       -0.2721
     13 C         -23.5758   -3.2595  -28.7470 C.3     1  UNL1        0.1652
     14 O         -22.9651   -4.2968  -28.0061 O.3     1  UNL1       -0.4813
     15 C         -22.8842   -4.1548  -26.6458 C.ar    1  UNL1        0.1392
     16 C         -22.8899   -2.9132  -25.9788 C.ar    1  UNL1        0.0692
     17 N         -22.8630   -2.7790  -24.6387 N.ar    1  UNL1       -0.2596
     18 C         -22.7421   -3.8960  -23.8972 C.ar    1  UNL1        0.0278
     19 C         -22.6670   -5.1837  -24.4593 C.ar    1  UNL1       -0.0401
     20 C         -22.7499   -5.3117  -25.8585 C.ar    1  UNL1       -0.0170
     21 C         -23.2533   -2.7150  -33.3069 C.3     1  UNL1       -0.0197
     22 C         -22.4542   -2.3197  -34.5959 C.3     1  UNL1       -0.0605
     23 C         -24.5003   -1.9531  -32.8272 C.3     1  UNL1       -0.0605
     24 C         -18.7199   -4.9737  -31.3079 C.2     1  UNL1        0.2339
     25 O         -17.8028   -5.7329  -31.1095 O.2     1  UNL1       -0.2738
     26 N         -19.6244   -4.6986  -30.3522 N.am    1  UNL1       -0.3037
     27 C         -19.8803   -5.4088  -29.1071 C.3     1  UNL1        0.0888
     28 C         -18.6199   -5.6813  -28.2537 C.3     1  UNL1       -0.0160
     29 C         -18.8619   -5.7435  -26.7370 C.3     1  UNL1        0.0390
     30 C         -17.6566   -6.2867  -25.9537 C.3     1  UNL1       -0.0262
     31 C         -17.6240   -5.4811  -24.6527 C.3     1  UNL1        0.0123
     32 N         -18.3879   -4.2880  -24.9468 N.am    1  UNL1       -0.3151
     33 C         -19.0570   -4.3744  -26.0916 C.2     1  UNL1        0.2162
     34 O         -19.7324   -3.4777  -26.5816 O.2     1  UNL1       -0.2755
     35 C         -20.7926   -6.6274  -29.3583 C.2     1  UNL1        0.2079
     36 O         -21.8942   -6.7271  -28.8255 O.2     1  UNL1       -0.2879
     37 C         -20.3733   -7.6793  -30.3317 C.ar    1  UNL1        0.1465
     38 N         -19.1194   -8.0692  -30.5881 N.ar    1  UNL1       -0.2360
     39 C         -19.0845   -8.9164  -31.6870 C.ar    1  UNL1        0.0790
     40 C         -17.9351   -9.4318  -32.3289 C.ar    1  UNL1       -0.0352
     41 C         -18.0479  -10.3279  -33.4110 C.ar    1  UNL1       -0.0597
     42 C         -19.3192  -10.7225  -33.8702 C.ar    1  UNL1       -0.0606
     43 C         -20.4773  -10.2068  -33.2609 C.ar    1  UNL1       -0.0459
     44 C         -20.3583   -9.3054  -32.1883 C.ar    1  UNL1        0.0396
     45 S         -21.6269   -8.4958  -31.2690 S.2     1  UNL1       -0.0643
     46 H         -16.4788   -4.0373  -34.4033 H       1  UNL1        0.0232
     47 H         -16.0639   -5.1696  -35.6891 H       1  UNL1        0.0232
     48 H         -17.5655   -4.2787  -35.7528 H       1  UNL1        0.0232
     49 H         -16.9708   -6.2557  -33.5118 H       1  UNL1        0.0296
     50 H         -18.4874   -7.8314  -34.8097 H       1  UNL1        0.0232
     51 H         -18.3029   -6.7724  -36.2023 H       1  UNL1        0.0232
     52 H         -16.9120   -7.6105  -35.5138 H       1  UNL1        0.0232
     53 H         -19.5092   -6.2675  -33.4528 H       1  UNL1        0.0290
     54 H         -19.4851   -5.0127  -34.6619 H       1  UNL1        0.0290
     55 H         -17.9713   -3.7286  -32.8434 H       1  UNL1        0.0594
     56 H         -19.8092   -2.5049  -32.7934 H       1  UNL1        0.1495
     57 H         -21.6143   -1.7942  -32.2913 H       1  UNL1        0.0597
     58 H         -22.2088   -1.9706  -30.3031 H       1  UNL1        0.1496
     59 H         -24.6414   -3.2079  -28.5264 H       1  UNL1        0.0795
     60 H         -23.1418   -2.2793  -28.5508 H       1  UNL1        0.0795
     61 H         -22.8704   -1.9959  -26.5288 H       1  UNL1        0.0867
     62 H         -22.6949   -3.7570  -22.8267 H       1  UNL1        0.0829
     63 H         -22.5609   -6.0559  -23.8306 H       1  UNL1        0.0634
     64 H         -22.7124   -6.2882  -26.3176 H       1  UNL1        0.0655
     65 H         -23.6384   -3.7234  -33.4696 H       1  UNL1        0.0318
     66 H         -22.8936   -1.6654  -35.3086 H       1  UNL1        0.0233
     67 H         -21.5181   -1.8062  -34.3846 H       1  UNL1        0.0233
     68 H         -22.1603   -3.2202  -35.1350 H       1  UNL1        0.0233
     69 H         -25.3193   -2.0128  -33.5247 H       1  UNL1        0.0233
     70 H         -24.9322   -2.4200  -31.9534 H       1  UNL1        0.0233
     71 H         -24.2967   -0.9301  -32.5327 H       1  UNL1        0.0233
     72 H         -20.3315   -4.0233  -30.6010 H       1  UNL1        0.1495
     73 H         -20.4865   -4.6860  -28.5688 H       1  UNL1        0.0582
     74 H         -17.8956   -4.8932  -28.4158 H       1  UNL1        0.0295
     75 H         -18.1313   -6.5989  -28.5794 H       1  UNL1        0.0295
     76 H         -19.7374   -6.3540  -26.5135 H       1  UNL1        0.0395
     77 H         -16.7289   -6.1236  -26.5009 H       1  UNL1        0.0288
     78 H         -17.7330   -7.3584  -25.7663 H       1  UNL1        0.0288
     79 H         -16.6100   -5.2509  -24.3249 H       1  UNL1        0.0462
     80 H         -18.1361   -6.0331  -23.8674 H       1  UNL1        0.0462
     81 H         -18.3820   -3.4686  -24.3561 H       1  UNL1        0.1487
     82 H         -16.9591   -9.1385  -31.9694 H       1  UNL1        0.0639
     83 H         -17.1578  -10.7166  -33.8830 H       1  UNL1        0.0618
     84 H         -19.4058  -11.4126  -34.6960 H       1  UNL1        0.0618
     85 H         -21.4520  -10.4957  -33.6212 H       1  UNL1        0.0629
@<TRIPOS>BOND
     1     1     2    1
     2     1    46    1
     3     1    47    1
     4     1    48    1
     5     2     3    1
     6     2     4    1
     7     2    49    1
     8     3    50    1
     9     3    51    1
    10     3    52    1
    11     4     5    1
    12     4    53    1
    13     4    54    1
    14     5     6    1
    15     5    24    1
    16     5    55    1
    17     6     7   am
    18     6    56    1
    19     7     8    2
    20     7     9    1
    21     9    10    1
    22     9    21    1
    23     9    57    1
    24    10    11   am
    25    10    58    1
    26    11    12    2
    27    11    13    1
    28    13    14    1
    29    13    59    1
    30    13    60    1
    31    14    15    1
    32    15    20   ar
    33    15    16   ar
    34    16    17   ar
    35    16    61    1
    36    17    18   ar
    37    18    19   ar
    38    18    62    1
    39    19    20   ar
    40    19    63    1
    41    20    64    1
    42    21    22    1
    43    21    23    1
    44    21    65    1
    45    22    66    1
    46    22    67    1
    47    22    68    1
    48    23    69    1
    49    23    70    1
    50    23    71    1
    51    24    25    2
    52    24    26   am
    53    26    27    1
    54    26    72    1
    55    27    28    1
    56    27    35    1
    57    27    73    1
    58    28    29    1
    59    28    74    1
    60    28    75    1
    61    29    33    1
    62    29    30    1
    63    29    76    1
    64    30    31    1
    65    30    77    1
    66    30    78    1
    67    31    32    1
    68    31    79    1
    69    31    80    1
    70    32    33   am
    71    32    81    1
    72    33    34    2
    73    35    36    2
    74    35    37    1
    75    37    45   ar
    76    37    38   ar
    77    38    39   ar
    78    39    44   ar
    79    39    40   ar
    80    40    41   ar
    81    40    82    1
    82    41    42   ar
    83    41    83    1
    84    42    43   ar
    85    42    84    1
    86    43    44   ar
    87    43    85    1
    88    44    45   ar
