
                    3D
 Schrodinger Suite 2019-4.
 85 88  0  0  1  0            999 V2000
  -16.8762   -4.7819  -35.0851 C   0  0  0  0  0  0
  -17.5881   -5.9085  -34.3398 C   0  0  0  0  0  0
  -17.8333   -7.0931  -35.2720 C   0  0  0  0  0  0
  -18.9300   -5.4162  -33.8142 C   0  0  0  0  0  0
  -18.8441   -4.3560  -32.7079 C   0  0  1  0  0  0
  -19.9977   -3.4978  -32.8000 N   0  0  0  0  0  0
  -21.2517   -3.8837  -32.5947 C   0  0  0  0  0  0
  -21.6514   -5.0476  -32.6589 O   0  0  0  0  0  0
  -22.1666   -2.7361  -32.2483 C   0  0  2  0  0  0
  -22.5749   -2.7330  -30.8564 N   0  0  0  0  0  0
  -23.3665   -3.5897  -30.2095 C   0  0  0  0  0  0
  -23.8877   -4.5787  -30.7214 O   0  0  0  0  0  0
  -23.5758   -3.2595  -28.7470 C   0  0  0  0  0  0
  -22.9651   -4.2968  -28.0061 O   0  0  0  0  0  0
  -22.8842   -4.1548  -26.6458 C   0  0  0  0  0  0
  -22.8899   -2.9132  -25.9788 C   0  0  0  0  0  0
  -22.8630   -2.7790  -24.6387 N   0  0  0  0  0  0
  -22.7421   -3.8960  -23.8972 C   0  0  0  0  0  0
  -22.6670   -5.1837  -24.4593 C   0  0  0  0  0  0
  -22.7499   -5.3117  -25.8585 C   0  0  0  0  0  0
  -23.2533   -2.7150  -33.3069 C   0  0  0  0  0  0
  -22.4542   -2.3197  -34.5959 C   0  0  0  0  0  0
  -24.5003   -1.9531  -32.8272 C   0  0  0  0  0  0
  -18.7199   -4.9737  -31.3079 C   0  0  0  0  0  0
  -17.8028   -5.7329  -31.1095 O   0  0  0  0  0  0
  -19.6244   -4.6986  -30.3522 N   0  0  0  0  0  0
  -19.8803   -5.4088  -29.1071 C   0  0  2  0  0  0
  -18.6199   -5.6813  -28.2537 C   0  0  0  0  0  0
  -18.8619   -5.7435  -26.7370 C   0  0  1  0  0  0
  -17.6566   -6.2867  -25.9537 C   0  0  0  0  0  0
  -17.6240   -5.4811  -24.6527 C   0  0  0  0  0  0
  -18.3879   -4.2880  -24.9468 N   0  0  0  0  0  0
  -19.0570   -4.3744  -26.0916 C   0  0  0  0  0  0
  -19.7324   -3.4777  -26.5816 O   0  0  0  0  0  0
  -20.7926   -6.6274  -29.3583 C   0  0  0  0  0  0
  -21.8942   -6.7271  -28.8255 O   0  0  0  0  0  0
  -20.3733   -7.6793  -30.3317 C   0  0  0  0  0  0
  -19.1194   -8.0692  -30.5881 N   0  0  0  0  0  0
  -19.0845   -8.9164  -31.6870 C   0  0  0  0  0  0
  -17.9351   -9.4318  -32.3289 C   0  0  0  0  0  0
  -18.0479  -10.3279  -33.4110 C   0  0  0  0  0  0
  -19.3192  -10.7225  -33.8702 C   0  0  0  0  0  0
  -20.4773  -10.2068  -33.2609 C   0  0  0  0  0  0
  -20.3583   -9.3054  -32.1883 C   0  0  0  0  0  0
  -21.6269   -8.4958  -31.2690 S   0  0  0  0  0  0
  -16.4788   -4.0373  -34.4033 H   0  0  0  0  0  0
  -16.0639   -5.1696  -35.6891 H   0  0  0  0  0  0
  -17.5655   -4.2787  -35.7528 H   0  0  0  0  0  0
  -16.9708   -6.2557  -33.5118 H   0  0  0  0  0  0
  -18.4874   -7.8314  -34.8097 H   0  0  0  0  0  0
  -18.3029   -6.7724  -36.2023 H   0  0  0  0  0  0
  -16.9120   -7.6105  -35.5138 H   0  0  0  0  0  0
  -19.5092   -6.2675  -33.4528 H   0  0  0  0  0  0
  -19.4851   -5.0127  -34.6619 H   0  0  0  0  0  0
  -17.9713   -3.7286  -32.8434 H   0  0  0  0  0  0
  -19.8092   -2.5049  -32.7934 H   0  0  0  0  0  0
  -21.6143   -1.7942  -32.2913 H   0  0  0  0  0  0
  -22.2088   -1.9706  -30.3031 H   0  0  0  0  0  0
  -24.6414   -3.2079  -28.5264 H   0  0  0  0  0  0
  -23.1418   -2.2793  -28.5508 H   0  0  0  0  0  0
  -22.8704   -1.9959  -26.5288 H   0  0  0  0  0  0
  -22.6949   -3.7570  -22.8267 H   0  0  0  0  0  0
  -22.5609   -6.0559  -23.8306 H   0  0  0  0  0  0
  -22.7124   -6.2882  -26.3176 H   0  0  0  0  0  0
  -23.6384   -3.7234  -33.4696 H   0  0  0  0  0  0
  -22.8936   -1.6654  -35.3086 H   0  0  0  0  0  0
  -21.5181   -1.8062  -34.3846 H   0  0  0  0  0  0
  -22.1603   -3.2202  -35.1350 H   0  0  0  0  0  0
  -25.3193   -2.0128  -33.5247 H   0  0  0  0  0  0
  -24.9322   -2.4200  -31.9534 H   0  0  0  0  0  0
  -24.2967   -0.9301  -32.5327 H   0  0  0  0  0  0
  -20.3315   -4.0233  -30.6010 H   0  0  0  0  0  0
  -20.4865   -4.6860  -28.5688 H   0  0  0  0  0  0
  -17.8956   -4.8932  -28.4158 H   0  0  0  0  0  0
  -18.1313   -6.5989  -28.5794 H   0  0  0  0  0  0
  -19.7374   -6.3540  -26.5135 H   0  0  0  0  0  0
  -16.7289   -6.1236  -26.5009 H   0  0  0  0  0  0
  -17.7330   -7.3584  -25.7663 H   0  0  0  0  0  0
  -16.6100   -5.2509  -24.3249 H   0  0  0  0  0  0
  -18.1361   -6.0331  -23.8674 H   0  0  0  0  0  0
  -18.3820   -3.4686  -24.3561 H   0  0  0  0  0  0
  -16.9591   -9.1385  -31.9694 H   0  0  0  0  0  0
  -17.1578  -10.7166  -33.8830 H   0  0  0  0  0  0
  -19.4058  -11.4126  -34.6960 H   0  0  0  0  0  0
  -21.4520  -10.4957  -33.6212 H   0  0  0  0  0  0
  1  2  1  0  0  0
  1 46  1  0  0  0
  1 47  1  0  0  0
  1 48  1  0  0  0
  2  3  1  0  0  0
  2  4  1  0  0  0
  2 49  1  0  0  0
  3 50  1  0  0  0
  3 51  1  0  0  0
  3 52  1  0  0  0
  4  5  1  0  0  0
  4 53  1  0  0  0
  4 54  1  0  0  0
  5  6  1  0  0  0
  5 24  1  0  0  0
  5 55  1  0  0  0
  6  7  1  0  0  0
  6 56  1  0  0  0
  7  8  2  0  0  0
  7  9  1  0  0  0
  9 10  1  0  0  0
  9 21  1  0  0  0
  9 57  1  0  0  0
 10 11  1  0  0  0
 10 58  1  0  0  0
 11 12  2  0  0  0
 11 13  1  0  0  0
 13 14  1  0  0  0
 13 59  1  0  0  0
 13 60  1  0  0  0
 14 15  1  0  0  0
 15 20  1  0  0  0
 15 16  2  0  0  0
 16 17  1  0  0  0
 16 61  1  0  0  0
 17 18  2  0  0  0
 18 19  1  0  0  0
 18 62  1  0  0  0
 19 20  2  0  0  0
 19 63  1  0  0  0
 20 64  1  0  0  0
 21 22  1  0  0  0
 21 23  1  0  0  0
 21 65  1  0  0  0
 22 66  1  0  0  0
 22 67  1  0  0  0
 22 68  1  0  0  0
 23 69  1  0  0  0
 23 70  1  0  0  0
 23 71  1  0  0  0
 24 25  2  0  0  0
 24 26  1  0  0  0
 26 27  1  0  0  0
 26 72  1  0  0  0
 27 28  1  0  0  0
 27 35  1  0  0  0
 27 73  1  0  0  0
 28 29  1  0  0  0
 28 74  1  0  0  0
 28 75  1  0  0  0
 29 33  1  0  0  0
 29 30  1  0  0  0
 29 76  1  0  0  0
 30 31  1  0  0  0
 30 77  1  0  0  0
 30 78  1  0  0  0
 31 32  1  0  0  0
 31 79  1  0  0  0
 31 80  1  0  0  0
 32 33  1  0  0  0
 32 81  1  0  0  0
 33 34  2  0  0  0
 35 36  2  0  0  0
 35 37  1  0  0  0
 37 45  1  0  0  0
 37 38  2  0  0  0
 38 39  1  0  0  0
 39 44  1  0  0  0
 39 40  2  0  0  0
 40 41  1  0  0  0
 40 82  1  0  0  0
 41 42  2  0  0  0
 41 83  1  0  0  0
 42 43  1  0  0  0
 42 84  1  0  0  0
 43 44  2  0  0  0
 43 85  1  0  0  0
 44 45  1  0  0  0
M  END
$$$$
