
                    3D
 Schrodinger Suite 2019-4.
 61 63  0  0  1  0            999 V2000
  -23.7244   -3.9877  -23.1434 F   0  0  0  0  0  0
  -22.8288   -3.0057  -23.1399 C   0  0  0  0  0  0
  -23.4534   -1.8628  -22.8842 F   0  0  0  0  0  0
  -21.9224   -3.2204  -22.1934 F   0  0  0  0  0  0
  -22.1572   -2.9204  -24.4982 C   0  0  0  0  0  0
  -22.4082   -1.9618  -25.2221 O   0  0  0  0  0  0
  -21.2427   -4.0595  -24.9479 C   0  0  2  0  0  0
  -19.7956   -3.8955  -24.4300 C   0  0  0  0  0  0
  -18.8568   -4.9540  -24.9610 C   0  0  0  0  0  0
  -18.5960   -6.1092  -24.2128 C   0  0  0  0  0  0
  -17.7376   -7.1129  -24.6894 C   0  0  0  0  0  0
  -17.1849   -6.9838  -25.9727 C   0  0  0  0  0  0
  -17.5211   -5.8680  -26.7572 C   0  0  0  0  0  0
  -18.2956   -4.8248  -26.2399 C   0  0  0  0  0  0
  -21.2280   -4.0059  -26.3998 N   0  0  0  0  0  0
  -21.7297   -4.9297  -27.2179 C   0  0  0  0  0  0
  -22.1742   -6.0158  -26.8448 O   0  0  0  0  0  0
  -21.7266   -4.5306  -28.6857 C   0  0  2  0  0  0
  -23.1342   -4.0393  -29.0765 C   0  0  0  0  0  0
  -23.0480   -3.4618  -30.4628 C   0  0  0  0  0  0
  -22.5632   -2.1514  -30.6310 C   0  0  0  0  0  0
  -22.1399   -1.7252  -31.8994 C   0  0  0  0  0  0
  -22.2301   -2.5955  -33.0001 C   0  0  0  0  0  0
  -22.7731   -3.8809  -32.8314 C   0  0  0  0  0  0
  -23.2102   -4.3118  -31.5715 C   0  0  0  0  0  0
  -21.3654   -5.6855  -29.4969 N   0  0  0  0  0  0
  -20.0701   -6.0049  -29.8464 C   0  0  0  0  0  0
  -19.0644   -5.3406  -29.6055 O   0  0  0  0  0  0
  -20.0741   -7.2178  -30.4072 O   0  0  0  0  0  0
  -18.8638   -7.9566  -30.4868 C   0  0  0  0  0  0
  -18.4957   -8.6810  -29.1989 C   0  0  0  0  0  0
  -19.3374   -8.6680  -28.0621 C   0  0  0  0  0  0
  -19.0116   -9.4248  -26.9215 C   0  0  0  0  0  0
  -17.8203  -10.1729  -26.8945 C   0  0  0  0  0  0
  -16.9550  -10.1543  -28.0058 C   0  0  0  0  0  0
  -17.2942   -9.4150  -29.1553 C   0  0  0  0  0  0
  -21.6469   -5.0061  -24.5846 H   0  0  0  0  0  0
  -19.7693   -3.9185  -23.3401 H   0  0  0  0  0  0
  -19.3632   -2.9478  -24.7179 H   0  0  0  0  0  0
  -19.0577   -6.2160  -23.2617 H   0  0  0  0  0  0
  -17.5251   -7.9833  -24.0861 H   0  0  0  0  0  0
  -16.5431   -7.7537  -26.3743 H   0  0  0  0  0  0
  -17.2148   -5.7997  -27.7767 H   0  0  0  0  0  0
  -18.5143   -3.9621  -26.8488 H   0  0  0  0  0  0
  -20.8933   -3.1465  -26.8132 H   0  0  0  0  0  0
  -21.0034   -3.7263  -28.8434 H   0  0  0  0  0  0
  -23.4855   -3.2649  -28.3920 H   0  0  0  0  0  0
  -23.8698   -4.8446  -29.0473 H   0  0  0  0  0  0
  -22.4220   -1.5082  -29.7744 H   0  0  0  0  0  0
  -21.6834   -0.7521  -32.0021 H   0  0  0  0  0  0
  -21.8615   -2.2845  -33.9657 H   0  0  0  0  0  0
  -22.7970   -4.5619  -33.6567 H   0  0  0  0  0  0
  -23.5574   -5.3263  -31.4431 H   0  0  0  0  0  0
  -22.0774   -6.3605  -29.7348 H   0  0  0  0  0  0
  -18.0371   -7.3162  -30.7852 H   0  0  0  0  0  0
  -18.9729   -8.7035  -31.2733 H   0  0  0  0  0  0
  -20.2526   -8.1007  -28.0551 H   0  0  0  0  0  0
  -19.6693   -9.4204  -26.0650 H   0  0  0  0  0  0
  -17.5598  -10.7440  -26.0158 H   0  0  0  0  0  0
  -16.0288  -10.7094  -27.9781 H   0  0  0  0  0  0
  -16.6321   -9.4218  -30.0093 H   0  0  0  0  0  0
  1  2  1  0  0  0
  2  3  1  0  0  0
  2  4  1  0  0  0
  2  5  1  0  0  0
  5  6  2  0  0  0
  5  7  1  0  0  0
  7  8  1  0  0  0
  7 15  1  0  0  0
  7 37  1  0  0  0
  8  9  1  0  0  0
  8 38  1  0  0  0
  8 39  1  0  0  0
  9 14  1  0  0  0
  9 10  2  0  0  0
 10 11  1  0  0  0
 10 40  1  0  0  0
 11 12  2  0  0  0
 11 41  1  0  0  0
 12 13  1  0  0  0
 12 42  1  0  0  0
 13 14  2  0  0  0
 13 43  1  0  0  0
 14 44  1  0  0  0
 15 16  1  0  0  0
 15 45  1  0  0  0
 16 17  2  0  0  0
 16 18  1  0  0  0
 18 19  1  0  0  0
 18 26  1  0  0  0
 18 46  1  0  0  0
 19 20  1  0  0  0
 19 47  1  0  0  0
 19 48  1  0  0  0
 20 25  1  0  0  0
 20 21  2  0  0  0
 21 22  1  0  0  0
 21 49  1  0  0  0
 22 23  2  0  0  0
 22 50  1  0  0  0
 23 24  1  0  0  0
 23 51  1  0  0  0
 24 25  2  0  0  0
 24 52  1  0  0  0
 25 53  1  0  0  0
 26 27  1  0  0  0
 26 54  1  0  0  0
 27 28  2  0  0  0
 27 29  1  0  0  0
 29 30  1  0  0  0
 30 31  1  0  0  0
 30 55  1  0  0  0
 30 56  1  0  0  0
 31 36  1  0  0  0
 31 32  2  0  0  0
 32 33  1  0  0  0
 32 57  1  0  0  0
 33 34  2  0  0  0
 33 58  1  0  0  0
 34 35  1  0  0  0
 34 59  1  0  0  0
 35 36  2  0  0  0
 35 60  1  0  0  0
 36 61  1  0  0  0
M  END
$$$$
