@<TRIPOS>MOLECULE
*****
 61 63 0 0 0
SMALL
GASTEIGER
****
Schrodinger Suite 2019-4.
@<TRIPOS>ATOM
      1 F         -23.7244   -3.9877  -23.1434 F       1  UNL1       -0.1633
      2 C         -22.8288   -3.0057  -23.1399 C.3     1  UNL1        0.4525
      3 F         -23.4534   -1.8628  -22.8842 F       1  UNL1       -0.1633
      4 F         -21.9224   -3.2204  -22.1934 F       1  UNL1       -0.1633
      5 C         -22.1572   -2.9204  -24.4982 C.2     1  UNL1        0.2557
      6 O         -22.4082   -1.9618  -25.2221 O.2     1  UNL1       -0.2859
      7 C         -21.2427   -4.0595  -24.9479 C.3     1  UNL1        0.0944
      8 C         -19.7956   -3.8955  -24.4300 C.3     1  UNL1       -0.0020
      9 C         -18.8568   -4.9540  -24.9610 C.ar    1  UNL1       -0.0452
     10 C         -18.5960   -6.1092  -24.2128 C.ar    1  UNL1       -0.0585
     11 C         -17.7376   -7.1129  -24.6894 C.ar    1  UNL1       -0.0615
     12 C         -17.1849   -6.9838  -25.9727 C.ar    1  UNL1       -0.0617
     13 C         -17.5211   -5.8680  -26.7572 C.ar    1  UNL1       -0.0615
     14 C         -18.2956   -4.8248  -26.2399 C.ar    1  UNL1       -0.0585
     15 N         -21.2280   -4.0059  -26.3998 N.am    1  UNL1       -0.3035
     16 C         -21.7297   -4.9297  -27.2179 C.2     1  UNL1        0.2343
     17 O         -22.1742   -6.0158  -26.8448 O.2     1  UNL1       -0.2738
     18 C         -21.7266   -4.5306  -28.6857 C.3     1  UNL1        0.1064
     19 C         -23.1342   -4.0393  -29.0765 C.3     1  UNL1       -0.0005
     20 C         -23.0480   -3.4618  -30.4628 C.ar    1  UNL1       -0.0451
     21 C         -22.5632   -2.1514  -30.6310 C.ar    1  UNL1       -0.0585
     22 C         -22.1399   -1.7252  -31.8994 C.ar    1  UNL1       -0.0615
     23 C         -22.2301   -2.5955  -33.0001 C.ar    1  UNL1       -0.0617
     24 C         -22.7731   -3.8809  -32.8314 C.ar    1  UNL1       -0.0615
     25 C         -23.2102   -4.3118  -31.5715 C.ar    1  UNL1       -0.0585
     26 N         -21.3654   -5.6855  -29.4969 N.am    1  UNL1       -0.2695
     27 C         -20.0701   -6.0049  -29.8464 C.2     1  UNL1        0.4012
     28 O         -19.0644   -5.3406  -29.6055 O.2     1  UNL1       -0.2265
     29 O         -20.0741   -7.2178  -30.4072 O.3     1  UNL1       -0.4456
     30 C         -18.8638   -7.9566  -30.4868 C.3     1  UNL1        0.1191
     31 C         -18.4957   -8.6810  -29.1989 C.ar    1  UNL1       -0.0103
     32 C         -19.3374   -8.6680  -28.0621 C.ar    1  UNL1       -0.0554
     33 C         -19.0116   -9.4248  -26.9215 C.ar    1  UNL1       -0.0614
     34 C         -17.8203  -10.1729  -26.8945 C.ar    1  UNL1       -0.0617
     35 C         -16.9550  -10.1543  -28.0058 C.ar    1  UNL1       -0.0614
     36 C         -17.2942   -9.4150  -29.1553 C.ar    1  UNL1       -0.0554
     37 H         -21.6469   -5.0061  -24.5846 H       1  UNL1        0.0584
     38 H         -19.7693   -3.9185  -23.3401 H       1  UNL1        0.0335
     39 H         -19.3632   -2.9478  -24.7179 H       1  UNL1        0.0335
     40 H         -19.0577   -6.2160  -23.2617 H       1  UNL1        0.0620
     41 H         -17.5251   -7.9833  -24.0861 H       1  UNL1        0.0618
     42 H         -16.5431   -7.7537  -26.3743 H       1  UNL1        0.0618
     43 H         -17.2148   -5.7997  -27.7767 H       1  UNL1        0.0618
     44 H         -18.5143   -3.9621  -26.8488 H       1  UNL1        0.0620
     45 H         -20.8933   -3.1465  -26.8132 H       1  UNL1        0.1495
     46 H         -21.0034   -3.7263  -28.8434 H       1  UNL1        0.0599
     47 H         -23.4855   -3.2649  -28.3920 H       1  UNL1        0.0336
     48 H         -23.8698   -4.8446  -29.0473 H       1  UNL1        0.0336
     49 H         -22.4220   -1.5082  -29.7744 H       1  UNL1        0.0620
     50 H         -21.6834   -0.7521  -32.0021 H       1  UNL1        0.0618
     51 H         -21.8615   -2.2845  -33.9657 H       1  UNL1        0.0618
     52 H         -22.7970   -4.5619  -33.6567 H       1  UNL1        0.0618
     53 H         -23.5574   -5.3263  -31.4431 H       1  UNL1        0.0620
     54 H         -22.0774   -6.3605  -29.7348 H       1  UNL1        0.1528
     55 H         -18.0371   -7.3162  -30.7852 H       1  UNL1        0.0749
     56 H         -18.9729   -8.7035  -31.2733 H       1  UNL1        0.0749
     57 H         -20.2526   -8.1007  -28.0551 H       1  UNL1        0.0621
     58 H         -19.6693   -9.4204  -26.0650 H       1  UNL1        0.0618
     59 H         -17.5598  -10.7440  -26.0158 H       1  UNL1        0.0618
     60 H         -16.0288  -10.7094  -27.9781 H       1  UNL1        0.0618
     61 H         -16.6321   -9.4218  -30.0093 H       1  UNL1        0.0621
@<TRIPOS>BOND
     1     1     2    1
     2     2     3    1
     3     2     4    1
     4     2     5    1
     5     5     6    2
     6     5     7    1
     7     7     8    1
     8     7    15    1
     9     7    37    1
    10     8     9    1
    11     8    38    1
    12     8    39    1
    13     9    14   ar
    14     9    10   ar
    15    10    11   ar
    16    10    40    1
    17    11    12   ar
    18    11    41    1
    19    12    13   ar
    20    12    42    1
    21    13    14   ar
    22    13    43    1
    23    14    44    1
    24    15    16   am
    25    15    45    1
    26    16    17    2
    27    16    18    1
    28    18    19    1
    29    18    26    1
    30    18    46    1
    31    19    20    1
    32    19    47    1
    33    19    48    1
    34    20    25   ar
    35    20    21   ar
    36    21    22   ar
    37    21    49    1
    38    22    23   ar
    39    22    50    1
    40    23    24   ar
    41    23    51    1
    42    24    25   ar
    43    24    52    1
    44    25    53    1
    45    26    27   am
    46    26    54    1
    47    27    28    2
    48    27    29    1
    49    29    30    1
    50    30    31    1
    51    30    55    1
    52    30    56    1
    53    31    36   ar
    54    31    32   ar
    55    32    33   ar
    56    32    57    1
    57    33    34   ar
    58    33    58    1
    59    34    35   ar
    60    34    59    1
    61    35    36   ar
    62    35    60    1
    63    36    61    1
