@<TRIPOS>MOLECULE
/home/lixiaoshuang.lxs/med/data/m_pro/PDB_BA/7brp/7brp_ligand.pdb
 37 39 0 0 0
SMALL
GASTEIGER

@<TRIPOS>ATOM
      1  C28       25.6300   -9.0490   11.3850 C.2   401  U5G401      0.3395
      2  N29       24.6750   -7.9790   11.0440 N.am  401  U5G401     -0.1906
      3  O34       26.5490   -9.3170   10.6900 O.2   401  U5G401     -0.2492
      4  C30       24.8090   -7.1940    9.7880 C.3   401  U5G401      0.0804
      5  C31       24.6750   -8.1540    8.5870 C.3   401  U5G401      0.0218
      6  C32       26.1860   -6.4900    9.7250 C.3   401  U5G401      0.0218
      7  C33       23.6640   -6.1530    9.7470 C.3   401  U5G401      0.0218
      8  N27       25.4040   -9.7830   12.6460 N.am  401  U5G401     -0.1796
      9  C22       26.3200  -10.8280   13.0200 C.3   401  U5G401      0.1727
     10  C23       27.0260  -10.4110   14.3280 C.3   401  U5G401      0.0270
     11  C24       27.8990  -11.5800   14.8420 C.3   401  U5G401      0.0022
     12  C25       27.8980   -9.1600   14.0550 C.3   401  U5G401      0.0022
     13  C26       25.9580  -10.0670   15.3900 C.3   401  U5G401      0.0022
     14  C21       25.5650  -12.1320   13.2230 C.2   401  U5G401      0.2459
     15  O35       24.6870  -12.2370   13.9970 O.2   401  U5G401     -0.2730
     16  N20       25.9710  -13.3230   12.3950 N.am  401  U5G401     -0.2716
     17  C19       27.0380  -13.3930   11.3020 C.3   401  U5G401      0.0939
     18  C13       25.3880  -14.6970   12.3830 C.3   401  U5G401      0.1535
     19  C14       26.1920  -15.7070   11.6120 C.3   401  U5G401      0.0289
     20  C15       27.3680  -14.8570   11.0550 C.3   401  U5G401      0.0220
     21  C16       25.9980  -14.8840   10.3090 C.3   401  U5G401      0.0037
     22  C17       24.8420  -13.8310    9.9770 C.3   401  U5G401      0.0001
     23  C18       26.1720  -15.8190    9.0680 C.3   401  U5G401      0.0001
     24  C12       25.6080  -15.1610   13.8400 C.2   401  U5G401      0.2595
     25  O36       26.6890  -15.1590   14.3140 O.2   401  U5G401     -0.2716
     26  N11       24.4650  -15.6210   14.6640 N.am  401  U5G401     -0.2027
     27  C05       24.7160  -16.0650   16.0240 C.3   401  U5G401      0.1347
     28  C06       24.0600  -15.0900   17.0140 C.3   401  U5G401      0.0248
     29  C07       24.9920  -13.8020   17.1120 C.3   401  U5G401      0.0018
     30  C10       24.5450  -12.8880   18.1340 C.3   401  U5G401      0.0001
     31  C08       26.3140  -14.1550   17.5730 C.3   401  U5G401      0.0001
     32  C09       26.1460  -12.8190   18.5400 C.3   401  U5G401      0.0000
     33  O04       24.6740  -18.3270   15.2670 O.3   401  U5G401     -0.2113
     34  C03       24.1220  -17.4530   16.2010 C.3   401  U5G401      0.2503
     35  O01       23.7340  -17.8910   18.4860 O.2   401  U5G401     -0.2688
     36  C02       24.4950  -17.9620   17.5940 C.2   401  U5G401      0.2929
     37  N37       25.8310  -18.5310   17.7710 N.am  401  U5G401     -0.0855
@<TRIPOS>BOND
     1     5     4    1
     2    23    21    1
     3     6     4    1
     4     7     4    1
     5     4     2    1
     6    22    21    1
     7    21    20    1
     8    21    19    1
     9     3     1    2
    10     2     1   am
    11    20    17    1
    12    20    19    1
    13    17    16    1
    14     1     8   am
    15    19    18    1
    16    18    16    1
    17    18    24    1
    18    16    14   am
    19     8     9    1
    20     9    14    1
    21     9    10    1
    22    14    15    2
    23    24    25    2
    24    24    26   am
    25    12    10    1
    26    10    11    1
    27    10    13    1
    28    26    27    1
    29    33    34    1
    30    27    34    1
    31    27    28    1
    32    34    36    1
    33    28    29    1
    34    29    31    1
    35    29    30    1
    36    31    32    1
    37    36    37   am
    38    36    35    2
    39    30    32    1
