@<TRIPOS>MOLECULE
/home/lixiaoshuang.lxs/med/data/m_pro/PDB_BA/6lny/6lny_ligand.pdb
 30 31 0 0 0
SMALL
GASTEIGER

@<TRIPOS>ATOM
      1  C12      -23.8010   24.9000    4.1360 C.2   401  EOC401      0.2421
      2  O21      -22.6510   24.6660    3.9120 O.2   401  EOC401     -0.2733
      3  C13      -24.3120   26.3910    4.0470 C.3   401  EOC401      0.0915
      4  C14      -24.2260   26.8850    2.8230 C.3   401  EOC401      0.0360
      5  C15      -24.7100   28.3590    2.7920 C.ar  401  EOC401     -0.0217
      6  C20      -25.3950   28.8720    3.8730 C.ar  401  EOC401     -0.0043
      7  C19      -25.8090   30.1880    3.8630 C.ar  401  EOC401     -0.0003
      8  C18      -25.5220   30.9950    2.7480 C.ar  401  EOC401     -0.0000
      9  C17      -24.8320   30.4840    1.6640 C.ar  401  EOC401     -0.0003
     10  C16      -24.4120   29.1670    1.6740 C.ar  401  EOC401     -0.0043
     11  N11      -24.7040   23.8540    4.4980 N.am  401  EOC401     -0.1978
     12  C10      -24.2200   22.4920    4.6040 C.3   401  EOC401      0.1727
     13  C09      -23.5820   22.0160    3.2940 C.2   401  EOC401      0.2616
     14  O26      -24.1830   22.0170    2.2880 O.2   401  EOC401     -0.2715
     15  C22      -25.3810   21.5900    5.0020 C.3   401  EOC401      0.0311
     16  C23      -25.5390   21.3700    6.5620 C.3   401  EOC401      0.0022
     17  C24      -24.8140   22.4170    7.4440 C.3   401  EOC401      0.0001
     18  C25      -26.9870   21.2550    6.9770 C.3   401  EOC401      0.0001
     19  C28      -21.5860   24.9120   -0.1340 C.3   401  EOC401      0.0239
     20  C05      -21.4390   21.0750    2.1570 C.3   401  EOC401      0.1601
     21  C27      -21.4800   23.5540    0.4030 C.3   401  EOC401      0.0110
     22  C02      -19.2140   24.2960    1.3340 C.2   401  EOC401      0.2410
     23  C04      -20.2350   21.9730    1.8290 C.3   401  EOC401      0.0388
     24  C06      -20.9690   19.6690    2.4600 C.2   401  EOC401      0.2287
     25  C03      -20.5890   23.4900    1.5270 C.3   401  EOC401      0.0804
     26  C29      -20.3080   25.2530   -0.8360 C.3   401  EOC401      0.1152
     27  N08      -22.1560   21.5600    3.3480 N.am  401  EOC401     -0.1977
     28  N30      -19.0890   25.2000    0.0820 N.am  401  EOC401     -0.2054
     29  O07      -20.9500   18.8920    1.5780 O.2   401  EOC401     -0.2864
     30  O01      -18.3290   24.1960    2.1260 O.2   401  EOC401     -0.2734
@<TRIPOS>BOND
     1    26    19    1
     2    26    28    1
     3    19    21    1
     4    28    22   am
     5    21    25    1
     6    22    25    1
     7    22    30    2
     8    25    23    1
     9    29    24    2
    10     9    10   ar
    11     9     8   ar
    12    10     5   ar
    13    23    20    1
    14    20    24    1
    15    20    27    1
    16    14    13    2
    17     8     7   ar
    18     5     4    1
    19     5     6   ar
    20     4     3    1
    21    13    27   am
    22    13    12    1
    23     7     6   ar
    24     2     1    2
    25     3     1    1
    26     1    11   am
    27    11    12    1
    28    12    15    1
    29    15    16    1
    30    16    18    1
    31    16    17    1
