@<TRIPOS>MOLECULE
/home/lixiaoshuang.lxs/med/data/m_pro/PDB_BA/2qiq/2qiq_ligand.pdb
 45 45 0 0 0
SMALL
GASTEIGER

@<TRIPOS>ATOM
      1  O43       18.5550  -32.9900   21.6270 O.2   302  CYV302     -0.2246
      2  C42       19.2210  -32.9880   20.5980 C.2   302  CYV302      0.4214
      3  O44       20.2040  -31.9160   20.3990 O.3   302  CYV302     -0.4408
      4  C46       21.5380  -31.9020   20.9580 C.3   302  CYV302      0.1379
      5  C49       22.2930  -30.7170   20.3570 C.3   302  CYV302      0.0437
      6  C48       21.4720  -31.7160   22.4770 C.3   302  CYV302      0.0437
      7  C47       22.2980  -33.1850   20.6050 C.3   302  CYV302      0.0437
      8  N41       19.0770  -33.9100   19.6380 N.am  302  CYV302     -0.1583
      9  C39       18.1370  -35.0250   19.7280 C.3   302  CYV302      0.2088
     10  C40       17.8800  -35.4860   18.2910 C.3   302  CYV302      0.2131
     11  O45       19.0710  -36.0030   17.6730 O.3   302  CYV302     -0.2179
     12  C37       18.6780  -36.1640   20.5560 C.2   302  CYV302      0.2644
     13  O38       19.8470  -36.5310   20.4560 O.2   302  CYV302     -0.2714
     14  N36       17.7910  -36.7150   21.3880 N.am  302  CYV302     -0.1981
     15  C32       18.0960  -37.8280   22.2820 C.3   302  CYV302      0.1522
     16  C33       17.7140  -37.3400   23.6930 C.3   302  CYV302      0.0272
     17  C35       17.6110  -38.4600   24.7250 C.3   302  CYV302      0.0022
     18  C34       18.6990  -36.2860   24.2000 C.3   302  CYV302      0.0022
     19  C30       17.3540  -39.0570   21.8210 C.2   302  CYV302      0.1707
     20  O31       16.1320  -39.0630   21.8200 O.2   302  CYV302     -0.2943
     21  C29       18.1480  -40.2640   21.3450 C.3   302  CYV302      0.0758
     22  C22       17.3370  -41.5680   21.3190 C.3   302  CYV302      0.0899
     23  C23       18.2420  -42.7650   21.0270 C.3   302  CYV302      0.0349
     24  C24       19.0970  -42.5740   19.7880 C.2   302  CYV302     -0.0341
     25  C25       20.2090  -43.3070   19.5460 C.2   302  CYV302     -0.0478
     26  C26       21.0060  -43.0590   18.3010 C.3   302  CYV302      0.0260
     27  C27       20.6990  -44.3810   20.4850 C.3   302  CYV302      0.0260
     28  C21       16.6400  -41.7690   22.6430 C.2   302  CYV302      0.2416
     29  O28       17.2210  -41.5070   23.6910 O.2   302  CYV302     -0.2733
     30  N20       15.3830  -42.2300   22.6310 N.am  302  CYV302     -0.2072
     31  C12       14.6700  -42.4200   23.9000 C.3   302  CYV302      0.0963
     32  C5        14.4150  -43.9070   24.1280 C.3   302  CYV302      0.0333
     33  C6        15.6640  -44.7910   24.1350 C.3   302  CYV302      0.1113
     34  C7        15.3520  -46.1180   24.7990 C.2   302  CYV302      0.3170
     35  O11       16.4340  -47.0280   25.1740 O.3   302  CYV302     -0.4485
     36  C9        17.1900  -46.8370   26.3780 C.3   302  CYV302      0.2086
     37  C10       16.3140  -46.9610   27.6120 C.3   302  CYV302      0.0513
     38  O8        14.1970  -46.4520   25.0390 O.2   302  CYV302     -0.2501
     39  C19       13.4090  -41.5740   23.7740 C.3   302  CYV302      0.0309
     40  C13       13.2750  -40.2770   24.7040 C.3   302  CYV302      0.0817
     41  C14       13.2600  -40.3100   26.2340 C.3   302  CYV302      0.0326
     42  C15       12.7780  -38.8660   26.6040 C.3   302  CYV302      0.1156
     43  N16       11.8830  -38.5380   25.5150 N.am  302  CYV302     -0.2054
     44  C17       12.0490  -39.3830   24.5700 C.2   302  CYV302      0.2410
     45  O18       11.3090  -39.4520   23.6110 O.2   302  CYV302     -0.2734
@<TRIPOS>BOND
     1    11    10    1
     2    10     9    1
     3    26    25    1
     4    25    24    2
     5    25    27    1
     6     8     9    1
     7     8     2   am
     8     9    12    1
     9    24    23    1
    10     5     4    1
    11     3     2    1
    12     3     4    1
    13    13    12    2
    14    12    14   am
    15     2     1    2
    16     7     4    1
    17     4     6    1
    18    23    22    1
    19    22    21    1
    20    22    28    1
    21    21    19    1
    22    14    15    1
    23    20    19    2
    24    19    15    1
    25    15    16    1
    26    30    28   am
    27    30    31    1
    28    28    29    2
    29    45    44    2
    30    16    18    1
    31    16    17    1
    32    39    31    1
    33    39    40    1
    34    31    32    1
    35    32    33    1
    36    33    34    1
    37    44    40    1
    38    44    43   am
    39    40    41    1
    40    34    38    2
    41    34    35    1
    42    35    36    1
    43    43    42    1
    44    41    42    1
    45    36    37    1
