@<TRIPOS>MOLECULE
*****
 69 72 0 0 0
SMALL
GASTEIGER
****
Schrodinger Suite 2019-4.
@<TRIPOS>ATOM
      1 C         -17.4825   -5.3021  -24.2792 C.3     1  UNL1       -0.0626
      2 C         -18.5714   -4.7824  -25.2290 C.3     1  UNL1       -0.0446
      3 C         -18.1419   -3.4515  -25.8650 C.3     1  UNL1       -0.0626
      4 C         -19.9566   -4.7142  -24.5361 C.3     1  UNL1       -0.0236
      5 C         -21.1429   -4.3254  -25.4533 C.3     1  UNL1        0.0996
      6 N         -22.3816   -4.3152  -24.6791 N.am    1  UNL1       -0.3037
      7 C         -23.2842   -3.3235  -24.6918 C.2     1  UNL1        0.2179
      8 O         -23.0678   -2.2347  -25.2173 O.2     1  UNL1       -0.2754
      9 C         -24.6466   -3.5956  -24.0411 C.3     1  UNL1        0.0491
     10 C         -25.7350   -3.8333  -25.0895 C.ar    1  UNL1       -0.0386
     11 C         -26.1217   -2.7999  -25.9496 C.ar    1  UNL1       -0.0581
     12 C         -27.0853   -3.0248  -26.9280 C.ar    1  UNL1       -0.0615
     13 C         -27.6864   -4.2764  -27.0306 C.ar    1  UNL1       -0.0617
     14 C         -27.3200   -5.3089  -26.1688 C.ar    1  UNL1       -0.0615
     15 C         -26.3408   -5.0894  -25.2010 C.ar    1  UNL1       -0.0581
     16 C         -21.3264   -5.3038  -26.6185 C.2     1  UNL1        0.2339
     17 O         -21.6032   -6.4821  -26.3893 O.2     1  UNL1       -0.2738
     18 N         -21.1558   -4.7931  -27.8489 N.am    1  UNL1       -0.3037
     19 C         -21.1247   -5.5774  -29.0972 C.3     1  UNL1        0.0888
     20 C         -21.4358   -4.6758  -30.3178 C.3     1  UNL1       -0.0160
     21 C         -22.7849   -3.9014  -30.2581 C.3     1  UNL1        0.0390
     22 C         -23.9992   -4.7907  -30.4896 C.3     1  UNL1       -0.0262
     23 C         -24.2778   -4.6743  -31.9745 C.3     1  UNL1        0.0123
     24 N         -23.7411   -3.3618  -32.2909 N.am    1  UNL1       -0.3151
     25 C         -22.8505   -2.8826  -31.4071 C.2     1  UNL1        0.2162
     26 O         -22.2366   -1.8237  -31.4795 O.2     1  UNL1       -0.2755
     27 C         -19.7399   -6.2360  -29.2468 C.2     1  UNL1        0.2079
     28 O         -18.7734   -5.8233  -28.6006 O.2     1  UNL1       -0.2879
     29 C         -19.5654   -7.3527  -30.1882 C.ar    1  UNL1        0.1465
     30 N         -20.4718   -7.8509  -30.9894 N.ar    1  UNL1       -0.2360
     31 C         -19.9699   -8.8581  -31.7591 C.ar    1  UNL1        0.0790
     32 C         -20.6978   -9.5831  -32.7118 C.ar    1  UNL1       -0.0352
     33 C         -20.0429  -10.5772  -33.4400 C.ar    1  UNL1       -0.0597
     34 C         -18.6922  -10.8556  -33.2317 C.ar    1  UNL1       -0.0606
     35 C         -17.9470  -10.1602  -32.2789 C.ar    1  UNL1       -0.0459
     36 C         -18.6022   -9.1630  -31.5460 C.ar    1  UNL1        0.0396
     37 S         -17.9878   -8.1287  -30.2782 S.2     1  UNL1       -0.0643
     38 H         -17.9093   -5.9054  -23.4801 H       1  UNL1        0.0232
     39 H         -16.7639   -5.9297  -24.8103 H       1  UNL1        0.0232
     40 H         -16.9277   -4.4851  -23.8145 H       1  UNL1        0.0232
     41 H         -18.6359   -5.5223  -26.0258 H       1  UNL1        0.0296
     42 H         -18.8069   -3.1790  -26.6793 H       1  UNL1        0.0232
     43 H         -18.1417   -2.6292  -25.1459 H       1  UNL1        0.0232
     44 H         -17.1380   -3.5274  -26.2807 H       1  UNL1        0.0232
     45 H         -19.8981   -4.0058  -23.7082 H       1  UNL1        0.0290
     46 H         -20.1706   -5.6831  -24.0818 H       1  UNL1        0.0290
     47 H         -20.9495   -3.3382  -25.8679 H       1  UNL1        0.0594
     48 H         -22.5817   -5.1684  -24.1653 H       1  UNL1        0.1495
     49 H         -24.9236   -2.7400  -23.4254 H       1  UNL1        0.0407
     50 H         -24.5746   -4.4501  -23.3653 H       1  UNL1        0.0407
     51 H         -25.6649   -1.8238  -25.8751 H       1  UNL1        0.0620
     52 H         -27.3610   -2.2231  -27.5979 H       1  UNL1        0.0618
     53 H         -28.4435   -4.4467  -27.7831 H       1  UNL1        0.0618
     54 H         -27.7928   -6.2766  -26.2549 H       1  UNL1        0.0618
     55 H         -26.0537   -5.8963  -24.5434 H       1  UNL1        0.0620
     56 H         -20.9447   -3.8089  -27.9381 H       1  UNL1        0.1495
     57 H         -21.8879   -6.3560  -29.0338 H       1  UNL1        0.0582
     58 H         -21.4427   -5.2968  -31.2078 H       1  UNL1        0.0295
     59 H         -20.6156   -3.9694  -30.4475 H       1  UNL1        0.0295
     60 H         -22.9029   -3.3598  -29.3178 H       1  UNL1        0.0395
     61 H         -24.8480   -4.4165  -29.9153 H       1  UNL1        0.0288
     62 H         -23.8536   -5.8227  -30.1922 H       1  UNL1        0.0288
     63 H         -25.3419   -4.7222  -32.1845 H       1  UNL1        0.0462
     64 H         -23.7796   -5.4498  -32.5602 H       1  UNL1        0.0462
     65 H         -23.9093   -2.9063  -33.1746 H       1  UNL1        0.1487
     66 H         -21.7419   -9.3776  -32.8818 H       1  UNL1        0.0639
     67 H         -20.5912  -11.1468  -34.1768 H       1  UNL1        0.0618
     68 H         -18.2176  -11.6321  -33.8125 H       1  UNL1        0.0618
     69 H         -16.9026  -10.3859  -32.1078 H       1  UNL1        0.0629
@<TRIPOS>BOND
     1     1     2    1
     2     1    38    1
     3     1    39    1
     4     1    40    1
     5     2     3    1
     6     2     4    1
     7     2    41    1
     8     3    42    1
     9     3    43    1
    10     3    44    1
    11     4     5    1
    12     4    45    1
    13     4    46    1
    14     5     6    1
    15     5    16    1
    16     5    47    1
    17     6     7   am
    18     6    48    1
    19     7     8    2
    20     7     9    1
    21     9    10    1
    22     9    49    1
    23     9    50    1
    24    10    15   ar
    25    10    11   ar
    26    11    12   ar
    27    11    51    1
    28    12    13   ar
    29    12    52    1
    30    13    14   ar
    31    13    53    1
    32    14    15   ar
    33    14    54    1
    34    15    55    1
    35    16    17    2
    36    16    18   am
    37    18    19    1
    38    18    56    1
    39    19    20    1
    40    19    27    1
    41    19    57    1
    42    20    21    1
    43    20    58    1
    44    20    59    1
    45    21    25    1
    46    21    22    1
    47    21    60    1
    48    22    23    1
    49    22    61    1
    50    22    62    1
    51    23    24    1
    52    23    63    1
    53    23    64    1
    54    24    25   am
    55    24    65    1
    56    25    26    2
    57    27    28    2
    58    27    29    1
    59    29    37   ar
    60    29    30   ar
    61    30    31   ar
    62    31    36   ar
    63    31    32   ar
    64    32    33   ar
    65    32    66    1
    66    33    34   ar
    67    33    67    1
    68    34    35   ar
    69    34    68    1
    70    35    36   ar
    71    35    69    1
    72    36    37   ar
