
                    3D
 Schrodinger Suite 2019-4.
 69 72  0  0  1  0            999 V2000
  -17.4825   -5.3021  -24.2792 C   0  0  0  0  0  0
  -18.5714   -4.7824  -25.2290 C   0  0  0  0  0  0
  -18.1419   -3.4515  -25.8650 C   0  0  0  0  0  0
  -19.9566   -4.7142  -24.5361 C   0  0  0  0  0  0
  -21.1429   -4.3254  -25.4533 C   0  0  2  0  0  0
  -22.3816   -4.3152  -24.6791 N   0  0  0  0  0  0
  -23.2842   -3.3235  -24.6918 C   0  0  0  0  0  0
  -23.0678   -2.2347  -25.2173 O   0  0  0  0  0  0
  -24.6466   -3.5956  -24.0411 C   0  0  0  0  0  0
  -25.7350   -3.8333  -25.0895 C   0  0  0  0  0  0
  -26.1217   -2.7999  -25.9496 C   0  0  0  0  0  0
  -27.0853   -3.0248  -26.9280 C   0  0  0  0  0  0
  -27.6864   -4.2764  -27.0306 C   0  0  0  0  0  0
  -27.3200   -5.3089  -26.1688 C   0  0  0  0  0  0
  -26.3408   -5.0894  -25.2010 C   0  0  0  0  0  0
  -21.3264   -5.3038  -26.6185 C   0  0  0  0  0  0
  -21.6032   -6.4821  -26.3893 O   0  0  0  0  0  0
  -21.1558   -4.7931  -27.8489 N   0  0  0  0  0  0
  -21.1247   -5.5774  -29.0972 C   0  0  1  0  0  0
  -21.4358   -4.6758  -30.3178 C   0  0  0  0  0  0
  -22.7849   -3.9014  -30.2581 C   0  0  2  0  0  0
  -23.9992   -4.7907  -30.4896 C   0  0  0  0  0  0
  -24.2778   -4.6743  -31.9745 C   0  0  0  0  0  0
  -23.7411   -3.3618  -32.2909 N   0  0  0  0  0  0
  -22.8505   -2.8826  -31.4071 C   0  0  0  0  0  0
  -22.2366   -1.8237  -31.4795 O   0  0  0  0  0  0
  -19.7399   -6.2360  -29.2468 C   0  0  0  0  0  0
  -18.7734   -5.8233  -28.6006 O   0  0  0  0  0  0
  -19.5654   -7.3527  -30.1882 C   0  0  0  0  0  0
  -20.4718   -7.8509  -30.9894 N   0  0  0  0  0  0
  -19.9699   -8.8581  -31.7591 C   0  0  0  0  0  0
  -20.6978   -9.5831  -32.7118 C   0  0  0  0  0  0
  -20.0429  -10.5772  -33.4400 C   0  0  0  0  0  0
  -18.6922  -10.8556  -33.2317 C   0  0  0  0  0  0
  -17.9470  -10.1602  -32.2789 C   0  0  0  0  0  0
  -18.6022   -9.1630  -31.5460 C   0  0  0  0  0  0
  -17.9878   -8.1287  -30.2782 S   0  0  0  0  0  0
  -17.9093   -5.9054  -23.4801 H   0  0  0  0  0  0
  -16.7639   -5.9297  -24.8103 H   0  0  0  0  0  0
  -16.9277   -4.4851  -23.8145 H   0  0  0  0  0  0
  -18.6359   -5.5223  -26.0258 H   0  0  0  0  0  0
  -18.8069   -3.1790  -26.6793 H   0  0  0  0  0  0
  -18.1417   -2.6292  -25.1459 H   0  0  0  0  0  0
  -17.1380   -3.5274  -26.2807 H   0  0  0  0  0  0
  -19.8981   -4.0058  -23.7082 H   0  0  0  0  0  0
  -20.1706   -5.6831  -24.0818 H   0  0  0  0  0  0
  -20.9495   -3.3382  -25.8679 H   0  0  0  0  0  0
  -22.5817   -5.1684  -24.1653 H   0  0  0  0  0  0
  -24.9236   -2.7400  -23.4254 H   0  0  0  0  0  0
  -24.5746   -4.4501  -23.3653 H   0  0  0  0  0  0
  -25.6649   -1.8238  -25.8751 H   0  0  0  0  0  0
  -27.3610   -2.2231  -27.5979 H   0  0  0  0  0  0
  -28.4435   -4.4467  -27.7831 H   0  0  0  0  0  0
  -27.7928   -6.2766  -26.2549 H   0  0  0  0  0  0
  -26.0537   -5.8963  -24.5434 H   0  0  0  0  0  0
  -20.9447   -3.8089  -27.9381 H   0  0  0  0  0  0
  -21.8879   -6.3560  -29.0338 H   0  0  0  0  0  0
  -21.4427   -5.2968  -31.2078 H   0  0  0  0  0  0
  -20.6156   -3.9694  -30.4475 H   0  0  0  0  0  0
  -22.9029   -3.3598  -29.3178 H   0  0  0  0  0  0
  -24.8480   -4.4165  -29.9153 H   0  0  0  0  0  0
  -23.8536   -5.8227  -30.1922 H   0  0  0  0  0  0
  -25.3419   -4.7222  -32.1845 H   0  0  0  0  0  0
  -23.7796   -5.4498  -32.5602 H   0  0  0  0  0  0
  -23.9093   -2.9063  -33.1746 H   0  0  0  0  0  0
  -21.7419   -9.3776  -32.8818 H   0  0  0  0  0  0
  -20.5912  -11.1468  -34.1768 H   0  0  0  0  0  0
  -18.2176  -11.6321  -33.8125 H   0  0  0  0  0  0
  -16.9026  -10.3859  -32.1078 H   0  0  0  0  0  0
  1  2  1  0  0  0
  1 38  1  0  0  0
  1 39  1  0  0  0
  1 40  1  0  0  0
  2  3  1  0  0  0
  2  4  1  0  0  0
  2 41  1  0  0  0
  3 42  1  0  0  0
  3 43  1  0  0  0
  3 44  1  0  0  0
  4  5  1  0  0  0
  4 45  1  0  0  0
  4 46  1  0  0  0
  5  6  1  0  0  0
  5 16  1  0  0  0
  5 47  1  0  0  0
  6  7  1  0  0  0
  6 48  1  0  0  0
  7  8  2  0  0  0
  7  9  1  0  0  0
  9 10  1  0  0  0
  9 49  1  0  0  0
  9 50  1  0  0  0
 10 15  1  0  0  0
 10 11  2  0  0  0
 11 12  1  0  0  0
 11 51  1  0  0  0
 12 13  2  0  0  0
 12 52  1  0  0  0
 13 14  1  0  0  0
 13 53  1  0  0  0
 14 15  2  0  0  0
 14 54  1  0  0  0
 15 55  1  0  0  0
 16 17  2  0  0  0
 16 18  1  0  0  0
 18 19  1  0  0  0
 18 56  1  0  0  0
 19 20  1  0  0  0
 19 27  1  0  0  0
 19 57  1  0  0  0
 20 21  1  0  0  0
 20 58  1  0  0  0
 20 59  1  0  0  0
 21 25  1  0  0  0
 21 22  1  0  0  0
 21 60  1  0  0  0
 22 23  1  0  0  0
 22 61  1  0  0  0
 22 62  1  0  0  0
 23 24  1  0  0  0
 23 63  1  0  0  0
 23 64  1  0  0  0
 24 25  1  0  0  0
 24 65  1  0  0  0
 25 26  2  0  0  0
 27 28  2  0  0  0
 27 29  1  0  0  0
 29 37  1  0  0  0
 29 30  2  0  0  0
 30 31  1  0  0  0
 31 36  2  0  0  0
 31 32  1  0  0  0
 32 33  2  0  0  0
 32 66  1  0  0  0
 33 34  1  0  0  0
 33 67  1  0  0  0
 34 35  2  0  0  0
 34 68  1  0  0  0
 35 36  1  0  0  0
 35 69  1  0  0  0
 36 37  1  0  0  0
M  END
$$$$
