@<TRIPOS>MOLECULE
*****
 63 65 0 0 0
SMALL
GASTEIGER
****
Schrodinger Suite 2019-4.
@<TRIPOS>ATOM
      1 C         -18.5573   -9.3702  -29.4264 C.3     1  UNL1       -0.0442
      2 C         -19.6996   -9.2078  -28.4091 C.3     1  UNL1        0.0262
      3 C         -21.0383   -9.5626  -29.0885 C.3     1  UNL1       -0.0442
      4 C         -19.4250  -10.1345  -27.2042 C.3     1  UNL1       -0.0442
      5 N         -19.6999   -7.8028  -27.9945 N.am    1  UNL1       -0.3087
      6 C         -20.4759   -7.2142  -27.0669 C.2     1  UNL1        0.2389
      7 O         -21.3547   -7.8061  -26.4461 O.2     1  UNL1       -0.2734
      8 C         -20.1887   -5.7295  -26.7761 C.3     1  UNL1        0.1338
      9 C         -18.8650   -5.6123  -26.0615 C.ar    1  UNL1        0.0002
     10 C         -18.1561   -6.6741  -25.4323 C.ar    1  UNL1       -0.0534
     11 C         -16.8606   -6.4647  -24.9348 C.ar    1  UNL1       -0.0433
     12 C         -16.3191   -5.1762  -25.0221 C.ar    1  UNL1        0.0276
     13 N         -16.9910   -4.1354  -25.5405 N.ar    1  UNL1       -0.2629
     14 C         -18.2189   -4.3576  -26.0408 C.ar    1  UNL1        0.0330
     15 N         -21.3503   -4.9918  -26.2006 N.am    1  UNL1       -0.2488
     16 C         -21.4768   -4.5673  -24.9071 C.2     1  UNL1        0.2871
     17 O         -20.5742   -4.6131  -24.0731 O.2     1  UNL1       -0.2662
     18 C         -22.7559   -3.9630  -24.4682 C.ar    1  UNL1        0.1917
     19 C         -23.0206   -3.0080  -23.5159 C.ar    1  UNL1       -0.0097
     20 C         -24.4370   -2.8727  -23.4495 C.ar    1  UNL1       -0.0038
     21 C         -24.9059   -3.7977  -24.3313 C.ar    1  UNL1        0.1949
     22 CL        -26.5433   -4.2216  -24.5712 Cl      1  UNL1       -0.0431
     23 O         -23.9211   -4.4569  -24.9672 O.2     1  UNL1       -0.4390
     24 C         -22.2739   -4.5729  -27.2031 C.ar    1  UNL1        0.0379
     25 C         -23.2078   -5.4721  -27.7544 C.ar    1  UNL1       -0.0400
     26 C         -23.9673   -5.1017  -28.8765 C.ar    1  UNL1       -0.0563
     27 C         -23.8160   -3.8229  -29.4668 C.ar    1  UNL1       -0.0419
     28 C         -24.4930   -3.4498  -30.7950 C.3     1  UNL1       -0.0127
     29 C         -25.3792   -2.2111  -30.6404 C.3     1  UNL1       -0.0560
     30 C         -25.3942   -4.5666  -31.3322 C.3     1  UNL1       -0.0560
     31 C         -23.4061   -3.1712  -31.8445 C.3     1  UNL1       -0.0560
     32 C         -22.9410   -2.9000  -28.8491 C.ar    1  UNL1       -0.0563
     33 C         -22.1720   -3.2765  -27.7345 C.ar    1  UNL1       -0.0400
     34 H         -17.5904   -9.1313  -28.9807 H       1  UNL1        0.0250
     35 H         -18.4992  -10.3925  -29.8006 H       1  UNL1        0.0250
     36 H         -18.6898   -8.7144  -30.2878 H       1  UNL1        0.0250
     37 H         -21.8854   -9.4509  -28.4134 H       1  UNL1        0.0250
     38 H         -21.2256   -8.9207  -29.9503 H       1  UNL1        0.0250
     39 H         -21.0395  -10.5935  -29.4435 H       1  UNL1        0.0250
     40 H         -20.2374  -10.1217  -26.4783 H       1  UNL1        0.0250
     41 H         -19.3052  -11.1689  -27.5264 H       1  UNL1        0.0250
     42 H         -18.5109   -9.8473  -26.6830 H       1  UNL1        0.0250
     43 H         -19.0064   -7.2208  -28.4411 H       1  UNL1        0.1493
     44 H         -20.0260   -5.2893  -27.7632 H       1  UNL1        0.0652
     45 H         -18.5654   -7.6702  -25.3603 H       1  UNL1        0.0622
     46 H         -16.2874   -7.2762  -24.5113 H       1  UNL1        0.0633
     47 H         -15.3135   -4.9795  -24.6972 H       1  UNL1        0.0829
     48 H         -18.7045   -3.4925  -26.4648 H       1  UNL1        0.0833
     49 H         -22.2835   -2.4939  -22.9174 H       1  UNL1        0.0657
     50 H         -25.0351   -2.2495  -22.8040 H       1  UNL1        0.0665
     51 H         -23.3134   -6.4689  -27.3564 H       1  UNL1        0.0636
     52 H         -24.6203   -5.8500  -29.2955 H       1  UNL1        0.0621
     53 H         -25.8332   -1.9204  -31.5890 H       1  UNL1        0.0238
     54 H         -26.1891   -2.4319  -29.9494 H       1  UNL1        0.0238
     55 H         -24.8170   -1.3526  -30.2767 H       1  UNL1        0.0238
     56 H         -25.8495   -4.2918  -32.2843 H       1  UNL1        0.0238
     57 H         -24.8346   -5.4870  -31.4896 H       1  UNL1        0.0238
     58 H         -26.1953   -4.7728  -30.6286 H       1  UNL1        0.0238
     59 H         -23.8486   -2.9050  -32.7976 H       1  UNL1        0.0238
     60 H         -22.7558   -2.3439  -31.5592 H       1  UNL1        0.0238
     61 H         -22.7759   -4.0469  -32.0066 H       1  UNL1        0.0238
     62 H         -22.8044   -1.9114  -29.2601 H       1  UNL1        0.0621
     63 H         -21.4596   -2.5937  -27.3062 H       1  UNL1        0.0636
@<TRIPOS>BOND
     1     1     2    1
     2     1    34    1
     3     1    35    1
     4     1    36    1
     5     2     3    1
     6     2     4    1
     7     2     5    1
     8     3    37    1
     9     3    38    1
    10     3    39    1
    11     4    40    1
    12     4    41    1
    13     4    42    1
    14     5     6   am
    15     5    43    1
    16     6     7    2
    17     6     8    1
    18     8     9    1
    19     8    15    1
    20     8    44    1
    21     9    14   ar
    22     9    10   ar
    23    10    11   ar
    24    10    45    1
    25    11    12   ar
    26    11    46    1
    27    12    13   ar
    28    12    47    1
    29    13    14   ar
    30    14    48    1
    31    15    16   am
    32    15    24    1
    33    16    17    2
    34    16    18    1
    35    18    23   ar
    36    18    19   ar
    37    19    20   ar
    38    19    49    1
    39    20    21   ar
    40    20    50    1
    41    21    22    1
    42    21    23   ar
    43    24    33   ar
    44    24    25   ar
    45    25    26   ar
    46    25    51    1
    47    26    27   ar
    48    26    52    1
    49    27    28    1
    50    27    32   ar
    51    28    29    1
    52    28    30    1
    53    28    31    1
    54    29    53    1
    55    29    54    1
    56    29    55    1
    57    30    56    1
    58    30    57    1
    59    30    58    1
    60    31    59    1
    61    31    60    1
    62    31    61    1
    63    32    33   ar
    64    32    62    1
    65    33    63    1
