
                    3D
 Schrodinger Suite 2019-4.
 63 65  0  0  1  0            999 V2000
  -18.5573   -9.3702  -29.4264 C   0  0  0  0  0  0
  -19.6996   -9.2078  -28.4091 C   0  0  0  0  0  0
  -21.0383   -9.5626  -29.0885 C   0  0  0  0  0  0
  -19.4250  -10.1345  -27.2042 C   0  0  0  0  0  0
  -19.6999   -7.8028  -27.9945 N   0  0  0  0  0  0
  -20.4759   -7.2142  -27.0669 C   0  0  0  0  0  0
  -21.3547   -7.8061  -26.4461 O   0  0  0  0  0  0
  -20.1887   -5.7295  -26.7761 C   0  0  2  0  0  0
  -18.8650   -5.6123  -26.0615 C   0  0  0  0  0  0
  -18.1561   -6.6741  -25.4323 C   0  0  0  0  0  0
  -16.8606   -6.4647  -24.9348 C   0  0  0  0  0  0
  -16.3191   -5.1762  -25.0221 C   0  0  0  0  0  0
  -16.9910   -4.1354  -25.5405 N   0  0  0  0  0  0
  -18.2189   -4.3576  -26.0408 C   0  0  0  0  0  0
  -21.3503   -4.9918  -26.2006 N   0  0  0  0  0  0
  -21.4768   -4.5673  -24.9071 C   0  0  0  0  0  0
  -20.5742   -4.6131  -24.0731 O   0  0  0  0  0  0
  -22.7559   -3.9630  -24.4682 C   0  0  0  0  0  0
  -23.0206   -3.0080  -23.5159 C   0  0  0  0  0  0
  -24.4370   -2.8727  -23.4495 C   0  0  0  0  0  0
  -24.9059   -3.7977  -24.3313 C   0  0  0  0  0  0
  -26.5433   -4.2216  -24.5712 Cl  0  0  0  0  0  0
  -23.9211   -4.4569  -24.9672 O   0  0  0  0  0  0
  -22.2739   -4.5729  -27.2031 C   0  0  0  0  0  0
  -23.2078   -5.4721  -27.7544 C   0  0  0  0  0  0
  -23.9673   -5.1017  -28.8765 C   0  0  0  0  0  0
  -23.8160   -3.8229  -29.4668 C   0  0  0  0  0  0
  -24.4930   -3.4498  -30.7950 C   0  0  0  0  0  0
  -25.3792   -2.2111  -30.6404 C   0  0  0  0  0  0
  -25.3942   -4.5666  -31.3322 C   0  0  0  0  0  0
  -23.4061   -3.1712  -31.8445 C   0  0  0  0  0  0
  -22.9410   -2.9000  -28.8491 C   0  0  0  0  0  0
  -22.1720   -3.2765  -27.7345 C   0  0  0  0  0  0
  -17.5904   -9.1313  -28.9807 H   0  0  0  0  0  0
  -18.4992  -10.3925  -29.8006 H   0  0  0  0  0  0
  -18.6898   -8.7144  -30.2878 H   0  0  0  0  0  0
  -21.8854   -9.4509  -28.4134 H   0  0  0  0  0  0
  -21.2256   -8.9207  -29.9503 H   0  0  0  0  0  0
  -21.0395  -10.5935  -29.4435 H   0  0  0  0  0  0
  -20.2374  -10.1217  -26.4783 H   0  0  0  0  0  0
  -19.3052  -11.1689  -27.5264 H   0  0  0  0  0  0
  -18.5109   -9.8473  -26.6830 H   0  0  0  0  0  0
  -19.0064   -7.2208  -28.4411 H   0  0  0  0  0  0
  -20.0260   -5.2893  -27.7632 H   0  0  0  0  0  0
  -18.5654   -7.6702  -25.3603 H   0  0  0  0  0  0
  -16.2874   -7.2762  -24.5113 H   0  0  0  0  0  0
  -15.3135   -4.9795  -24.6972 H   0  0  0  0  0  0
  -18.7045   -3.4925  -26.4648 H   0  0  0  0  0  0
  -22.2835   -2.4939  -22.9174 H   0  0  0  0  0  0
  -25.0351   -2.2495  -22.8040 H   0  0  0  0  0  0
  -23.3134   -6.4689  -27.3564 H   0  0  0  0  0  0
  -24.6203   -5.8500  -29.2955 H   0  0  0  0  0  0
  -25.8332   -1.9204  -31.5890 H   0  0  0  0  0  0
  -26.1891   -2.4319  -29.9494 H   0  0  0  0  0  0
  -24.8170   -1.3526  -30.2767 H   0  0  0  0  0  0
  -25.8495   -4.2918  -32.2843 H   0  0  0  0  0  0
  -24.8346   -5.4870  -31.4896 H   0  0  0  0  0  0
  -26.1953   -4.7728  -30.6286 H   0  0  0  0  0  0
  -23.8486   -2.9050  -32.7976 H   0  0  0  0  0  0
  -22.7558   -2.3439  -31.5592 H   0  0  0  0  0  0
  -22.7759   -4.0469  -32.0066 H   0  0  0  0  0  0
  -22.8044   -1.9114  -29.2601 H   0  0  0  0  0  0
  -21.4596   -2.5937  -27.3062 H   0  0  0  0  0  0
  1  2  1  0  0  0
  1 34  1  0  0  0
  1 35  1  0  0  0
  1 36  1  0  0  0
  2  3  1  0  0  0
  2  4  1  0  0  0
  2  5  1  0  0  0
  3 37  1  0  0  0
  3 38  1  0  0  0
  3 39  1  0  0  0
  4 40  1  0  0  0
  4 41  1  0  0  0
  4 42  1  0  0  0
  5  6  1  0  0  0
  5 43  1  0  0  0
  6  7  2  0  0  0
  6  8  1  0  0  0
  8  9  1  0  0  0
  8 15  1  0  0  0
  8 44  1  0  0  0
  9 14  1  0  0  0
  9 10  2  0  0  0
 10 11  1  0  0  0
 10 45  1  0  0  0
 11 12  2  0  0  0
 11 46  1  0  0  0
 12 13  1  0  0  0
 12 47  1  0  0  0
 13 14  2  0  0  0
 14 48  1  0  0  0
 15 16  1  0  0  0
 15 24  1  0  0  0
 16 17  2  0  0  0
 16 18  1  0  0  0
 18 23  1  0  0  0
 18 19  2  0  0  0
 19 20  1  0  0  0
 19 49  1  0  0  0
 20 21  2  0  0  0
 20 50  1  0  0  0
 21 22  1  0  0  0
 21 23  1  0  0  0
 24 33  1  0  0  0
 24 25  2  0  0  0
 25 26  1  0  0  0
 25 51  1  0  0  0
 26 27  2  0  0  0
 26 52  1  0  0  0
 27 28  1  0  0  0
 27 32  1  0  0  0
 28 29  1  0  0  0
 28 30  1  0  0  0
 28 31  1  0  0  0
 29 53  1  0  0  0
 29 54  1  0  0  0
 29 55  1  0  0  0
 30 56  1  0  0  0
 30 57  1  0  0  0
 30 58  1  0  0  0
 31 59  1  0  0  0
 31 60  1  0  0  0
 31 61  1  0  0  0
 32 33  2  0  0  0
 32 62  1  0  0  0
 33 63  1  0  0  0
M  END
$$$$
