@<TRIPOS>MOLECULE
*****
 64 67 0 0 0
SMALL
GASTEIGER
****
Schrodinger Suite 2019-4.
@<TRIPOS>ATOM
      1 C         -18.8672   -1.2244  -25.7274 C.3     1  UNL1       -0.0626
      2 C         -18.6299   -2.7186  -25.9285 C.3     1  UNL1       -0.0446
      3 C         -17.2573   -3.0775  -26.5170 C.3     1  UNL1       -0.0626
      4 C         -19.7419   -3.4589  -26.7198 C.3     1  UNL1       -0.0236
      5 C         -21.0064   -4.0830  -26.0727 C.3     1  UNL1        0.0999
      6 N         -20.8602   -4.5171  -24.6841 N.am    1  UNL1       -0.2988
      7 C         -19.7472   -4.7581  -23.9798 C.2     1  UNL1        0.2609
      8 O         -19.6619   -4.2759  -22.8570 O.2     1  UNL1       -0.2686
      9 C         -18.5650   -5.4112  -24.5919 C.ar    1  UNL1        0.1018
     10 C         -17.2291   -5.2904  -24.3166 C.ar    1  UNL1       -0.0319
     11 C         -16.5209   -6.2021  -25.1479 C.ar    1  UNL1       -0.0437
     12 C         -17.4371   -6.8524  -25.9261 C.ar    1  UNL1        0.0023
     13 N         -18.6816   -6.3646  -25.5800 N.ar    1  UNL1       -0.3571
     14 C         -21.6306   -5.1445  -26.9877 C.2     1  UNL1        0.2339
     15 O         -22.0148   -6.2287  -26.5499 O.2     1  UNL1       -0.2738
     16 N         -21.6298   -4.8245  -28.2899 N.am    1  UNL1       -0.3037
     17 C         -21.6966   -5.7581  -29.4041 C.3     1  UNL1        0.0888
     18 C         -22.2405   -5.0209  -30.6481 C.3     1  UNL1       -0.0160
     19 C         -23.6917   -4.5092  -30.5642 C.3     1  UNL1        0.0390
     20 C         -24.3396   -4.3807  -31.9536 C.3     1  UNL1       -0.0262
     21 C         -24.2557   -2.8920  -32.3107 C.3     1  UNL1        0.0123
     22 N         -24.0535   -2.2297  -31.0394 N.am    1  UNL1       -0.3151
     23 C         -23.7561   -3.0738  -30.0547 C.2     1  UNL1        0.2162
     24 O         -23.5772   -2.7622  -28.8818 O.2     1  UNL1       -0.2755
     25 C         -20.2521   -6.1984  -29.7573 C.2     1  UNL1        0.2079
     26 O         -19.2623   -5.5655  -29.3850 O.2     1  UNL1       -0.2879
     27 C         -20.0361   -7.3746  -30.6468 C.ar    1  UNL1        0.1465
     28 N         -18.8398   -7.7426  -31.1180 N.ar    1  UNL1       -0.2360
     29 C         -18.9738   -8.7852  -32.0232 C.ar    1  UNL1        0.0790
     30 C         -17.9428   -9.3935  -32.7748 C.ar    1  UNL1       -0.0352
     31 C         -18.2246  -10.4397  -33.6755 C.ar    1  UNL1       -0.0597
     32 C         -19.5464  -10.8981  -33.8373 C.ar    1  UNL1       -0.0606
     33 C         -20.5895  -10.3121  -33.0995 C.ar    1  UNL1       -0.0459
     34 C         -20.3024   -9.2662  -32.2061 C.ar    1  UNL1        0.0396
     35 S         -21.4043   -8.3642  -31.1784 S.2     1  UNL1       -0.0643
     36 H         -19.9066   -0.9517  -25.8995 H       1  UNL1        0.0232
     37 H         -18.6245   -0.9420  -24.7061 H       1  UNL1        0.0232
     38 H         -18.2245   -0.6295  -26.3686 H       1  UNL1        0.0232
     39 H         -18.5352   -3.0445  -24.9100 H       1  UNL1        0.0296
     40 H         -17.2537   -3.9903  -27.1060 H       1  UNL1        0.0232
     41 H         -16.8630   -2.2805  -27.1359 H       1  UNL1        0.0232
     42 H         -16.5488   -3.3038  -25.7244 H       1  UNL1        0.0232
     43 H         -19.2740   -4.2732  -27.2657 H       1  UNL1        0.0290
     44 H         -20.1168   -2.7834  -27.4721 H       1  UNL1        0.0290
     45 H         -21.7522   -3.2895  -26.0246 H       1  UNL1        0.0595
     46 H         -21.6382   -4.2157  -24.1143 H       1  UNL1        0.1498
     47 H         -16.8016   -4.6272  -23.5804 H       1  UNL1        0.0640
     48 H         -15.4559   -6.3681  -25.1617 H       1  UNL1        0.0633
     49 H         -17.3197   -7.6110  -26.6853 H       1  UNL1        0.0807
     50 H         -19.5568   -6.6710  -25.9847 H       1  UNL1        0.1655
     51 H         -21.3545   -3.8821  -28.5260 H       1  UNL1        0.1495
     52 H         -22.3182   -6.6154  -29.1469 H       1  UNL1        0.0582
     53 H         -22.2000   -5.7102  -31.4875 H       1  UNL1        0.0295
     54 H         -21.5730   -4.1992  -30.9194 H       1  UNL1        0.0295
     55 H         -24.2927   -5.1586  -29.9288 H       1  UNL1        0.0395
     56 H         -25.3797   -4.6936  -31.8860 H       1  UNL1        0.0288
     57 H         -23.8881   -5.0098  -32.7207 H       1  UNL1        0.0288
     58 H         -25.1618   -2.5437  -32.8036 H       1  UNL1        0.0462
     59 H         -23.4050   -2.6880  -32.9620 H       1  UNL1        0.0462
     60 H         -24.1670   -1.2339  -30.9159 H       1  UNL1        0.1487
     61 H         -16.9263   -9.0458  -32.6580 H       1  UNL1        0.0639
     62 H         -17.4241  -10.8914  -34.2437 H       1  UNL1        0.0618
     63 H         -19.7570  -11.7017  -34.5277 H       1  UNL1        0.0618
     64 H         -21.6044  -10.6597  -33.2192 H       1  UNL1        0.0629
@<TRIPOS>BOND
     1     1     2    1
     2     1    36    1
     3     1    37    1
     4     1    38    1
     5     2     3    1
     6     2     4    1
     7     2    39    1
     8     3    40    1
     9     3    41    1
    10     3    42    1
    11     4     5    1
    12     4    43    1
    13     4    44    1
    14     5     6    1
    15     5    14    1
    16     5    45    1
    17     6     7   am
    18     6    46    1
    19     7     8    2
    20     7     9    1
    21     9    13   ar
    22     9    10   ar
    23    10    11   ar
    24    10    47    1
    25    11    12   ar
    26    11    48    1
    27    12    13   ar
    28    12    49    1
    29    13    50    1
    30    14    15    2
    31    14    16   am
    32    16    17    1
    33    16    51    1
    34    17    18    1
    35    17    25    1
    36    17    52    1
    37    18    19    1
    38    18    53    1
    39    18    54    1
    40    19    23    1
    41    19    20    1
    42    19    55    1
    43    20    21    1
    44    20    56    1
    45    20    57    1
    46    21    22    1
    47    21    58    1
    48    21    59    1
    49    22    23   am
    50    22    60    1
    51    23    24    2
    52    25    26    2
    53    25    27    1
    54    27    35   ar
    55    27    28   ar
    56    28    29   ar
    57    29    34   ar
    58    29    30   ar
    59    30    31   ar
    60    30    61    1
    61    31    32   ar
    62    31    62    1
    63    32    33   ar
    64    32    63    1
    65    33    34   ar
    66    33    64    1
    67    34    35   ar
