
                    3D
 Schrodinger Suite 2019-4.
 64 67  0  0  1  0            999 V2000
  -18.8672   -1.2244  -25.7274 C   0  0  0  0  0  0
  -18.6299   -2.7186  -25.9285 C   0  0  0  0  0  0
  -17.2573   -3.0775  -26.5170 C   0  0  0  0  0  0
  -19.7419   -3.4589  -26.7198 C   0  0  0  0  0  0
  -21.0064   -4.0830  -26.0727 C   0  0  2  0  0  0
  -20.8602   -4.5171  -24.6841 N   0  0  0  0  0  0
  -19.7472   -4.7581  -23.9798 C   0  0  0  0  0  0
  -19.6619   -4.2759  -22.8570 O   0  0  0  0  0  0
  -18.5650   -5.4112  -24.5919 C   0  0  0  0  0  0
  -17.2291   -5.2904  -24.3166 C   0  0  0  0  0  0
  -16.5209   -6.2021  -25.1479 C   0  0  0  0  0  0
  -17.4371   -6.8524  -25.9261 C   0  0  0  0  0  0
  -18.6816   -6.3646  -25.5800 N   0  0  0  0  0  0
  -21.6306   -5.1445  -26.9877 C   0  0  0  0  0  0
  -22.0148   -6.2287  -26.5499 O   0  0  0  0  0  0
  -21.6298   -4.8245  -28.2899 N   0  0  0  0  0  0
  -21.6966   -5.7581  -29.4041 C   0  0  1  0  0  0
  -22.2405   -5.0209  -30.6481 C   0  0  0  0  0  0
  -23.6917   -4.5092  -30.5642 C   0  0  2  0  0  0
  -24.3396   -4.3807  -31.9536 C   0  0  0  0  0  0
  -24.2557   -2.8920  -32.3107 C   0  0  0  0  0  0
  -24.0535   -2.2297  -31.0394 N   0  0  0  0  0  0
  -23.7561   -3.0738  -30.0547 C   0  0  0  0  0  0
  -23.5772   -2.7622  -28.8818 O   0  0  0  0  0  0
  -20.2521   -6.1984  -29.7573 C   0  0  0  0  0  0
  -19.2623   -5.5655  -29.3850 O   0  0  0  0  0  0
  -20.0361   -7.3746  -30.6468 C   0  0  0  0  0  0
  -18.8398   -7.7426  -31.1180 N   0  0  0  0  0  0
  -18.9738   -8.7852  -32.0232 C   0  0  0  0  0  0
  -17.9428   -9.3935  -32.7748 C   0  0  0  0  0  0
  -18.2246  -10.4397  -33.6755 C   0  0  0  0  0  0
  -19.5464  -10.8981  -33.8373 C   0  0  0  0  0  0
  -20.5895  -10.3121  -33.0995 C   0  0  0  0  0  0
  -20.3024   -9.2662  -32.2061 C   0  0  0  0  0  0
  -21.4043   -8.3642  -31.1784 S   0  0  0  0  0  0
  -19.9066   -0.9517  -25.8995 H   0  0  0  0  0  0
  -18.6245   -0.9420  -24.7061 H   0  0  0  0  0  0
  -18.2245   -0.6295  -26.3686 H   0  0  0  0  0  0
  -18.5352   -3.0445  -24.9100 H   0  0  0  0  0  0
  -17.2537   -3.9903  -27.1060 H   0  0  0  0  0  0
  -16.8630   -2.2805  -27.1359 H   0  0  0  0  0  0
  -16.5488   -3.3038  -25.7244 H   0  0  0  0  0  0
  -19.2740   -4.2732  -27.2657 H   0  0  0  0  0  0
  -20.1168   -2.7834  -27.4721 H   0  0  0  0  0  0
  -21.7522   -3.2895  -26.0246 H   0  0  0  0  0  0
  -21.6382   -4.2157  -24.1143 H   0  0  0  0  0  0
  -16.8016   -4.6272  -23.5804 H   0  0  0  0  0  0
  -15.4559   -6.3681  -25.1617 H   0  0  0  0  0  0
  -17.3197   -7.6110  -26.6853 H   0  0  0  0  0  0
  -19.5568   -6.6710  -25.9847 H   0  0  0  0  0  0
  -21.3545   -3.8821  -28.5260 H   0  0  0  0  0  0
  -22.3182   -6.6154  -29.1469 H   0  0  0  0  0  0
  -22.2000   -5.7102  -31.4875 H   0  0  0  0  0  0
  -21.5730   -4.1992  -30.9194 H   0  0  0  0  0  0
  -24.2927   -5.1586  -29.9288 H   0  0  0  0  0  0
  -25.3797   -4.6936  -31.8860 H   0  0  0  0  0  0
  -23.8881   -5.0098  -32.7207 H   0  0  0  0  0  0
  -25.1618   -2.5437  -32.8036 H   0  0  0  0  0  0
  -23.4050   -2.6880  -32.9620 H   0  0  0  0  0  0
  -24.1670   -1.2339  -30.9159 H   0  0  0  0  0  0
  -16.9263   -9.0458  -32.6580 H   0  0  0  0  0  0
  -17.4241  -10.8914  -34.2437 H   0  0  0  0  0  0
  -19.7570  -11.7017  -34.5277 H   0  0  0  0  0  0
  -21.6044  -10.6597  -33.2192 H   0  0  0  0  0  0
  1  2  1  0  0  0
  1 36  1  0  0  0
  1 37  1  0  0  0
  1 38  1  0  0  0
  2  3  1  0  0  0
  2  4  1  0  0  0
  2 39  1  0  0  0
  3 40  1  0  0  0
  3 41  1  0  0  0
  3 42  1  0  0  0
  4  5  1  0  0  0
  4 43  1  0  0  0
  4 44  1  0  0  0
  5  6  1  0  0  0
  5 14  1  0  0  0
  5 45  1  0  0  0
  6  7  1  0  0  0
  6 46  1  0  0  0
  7  8  2  0  0  0
  7  9  1  0  0  0
  9 13  1  0  0  0
  9 10  2  0  0  0
 10 11  1  0  0  0
 10 47  1  0  0  0
 11 12  2  0  0  0
 11 48  1  0  0  0
 12 13  1  0  0  0
 12 49  1  0  0  0
 13 50  1  0  0  0
 14 15  2  0  0  0
 14 16  1  0  0  0
 16 17  1  0  0  0
 16 51  1  0  0  0
 17 18  1  0  0  0
 17 25  1  0  0  0
 17 52  1  0  0  0
 18 19  1  0  0  0
 18 53  1  0  0  0
 18 54  1  0  0  0
 19 23  1  0  0  0
 19 20  1  0  0  0
 19 55  1  0  0  0
 20 21  1  0  0  0
 20 56  1  0  0  0
 20 57  1  0  0  0
 21 22  1  0  0  0
 21 58  1  0  0  0
 21 59  1  0  0  0
 22 23  1  0  0  0
 22 60  1  0  0  0
 23 24  2  0  0  0
 25 26  2  0  0  0
 25 27  1  0  0  0
 27 35  1  0  0  0
 27 28  2  0  0  0
 28 29  1  0  0  0
 29 34  2  0  0  0
 29 30  1  0  0  0
 30 31  2  0  0  0
 30 61  1  0  0  0
 31 32  1  0  0  0
 31 62  1  0  0  0
 32 33  2  0  0  0
 32 63  1  0  0  0
 33 34  1  0  0  0
 33 64  1  0  0  0
 34 35  1  0  0  0
M  END
$$$$
