@<TRIPOS>MOLECULE
*****
 73 76 0 0 0
SMALL
GASTEIGER
****
Schrodinger Suite 2019-4.
@<TRIPOS>ATOM
      1 O         -19.1819   -5.4723  -29.6892 O.2     1  UNL1       -0.2708
      2 C         -20.1314   -5.7257  -30.4339 C.2     1  UNL1        0.2375
      3 N         -21.3275   -5.1287  -30.3295 N.am    1  UNL1       -0.3005
      4 C         -21.6724   -4.1143  -29.3385 C.3     1  UNL1        0.0999
      5 C         -23.0792   -3.5577  -29.6243 C.3     1  UNL1       -0.0231
      6 C         -23.1742   -2.8641  -30.9667 C.3     1  UNL1       -0.0389
      7 C         -22.5636   -1.5026  -31.1811 C.3     1  UNL1       -0.0499
      8 C         -24.0654   -1.6654  -31.1611 C.3     1  UNL1       -0.0499
      9 C         -21.6335   -4.6988  -27.9243 C.2     1  UNL1        0.2339
     10 O         -22.2871   -5.7019  -27.6373 O.2     1  UNL1       -0.2738
     11 N         -20.8620   -4.0448  -27.0514 N.am    1  UNL1       -0.3036
     12 C         -20.8112   -4.3133  -25.6200 C.3     1  UNL1        0.0914
     13 C         -19.3326   -4.1507  -25.1755 C.3     1  UNL1       -0.0159
     14 C         -18.4406   -5.2655  -25.7782 C.3     1  UNL1        0.0390
     15 C         -18.8138   -6.6828  -25.3169 C.3     1  UNL1       -0.0262
     16 C         -17.4873   -7.4346  -25.1529 C.3     1  UNL1        0.0123
     17 N         -16.4944   -6.3867  -25.0680 N.am    1  UNL1       -0.3151
     18 C         -16.9665   -5.1896  -25.4031 C.2     1  UNL1        0.2162
     19 O         -16.3023   -4.1624  -25.4510 O.2     1  UNL1       -0.2755
     20 C         -21.7714   -3.3153  -24.9366 C.2     1  UNL1        0.2372
     21 O         -22.3717   -2.4341  -25.5517 O.2     1  UNL1       -0.2852
     22 C         -22.0714   -3.5061  -23.4566 C.2     1  UNL1        0.2817
     23 O         -21.1991   -3.6309  -22.6004 O.2     1  UNL1       -0.2670
     24 N         -23.3939   -3.5461  -23.2506 N.am    1  UNL1       -0.3048
     25 C         -24.0367   -4.0328  -22.0456 C.3     1  UNL1        0.0372
     26 C         -24.0412   -5.5535  -21.9352 C.ar    1  UNL1       -0.0303
     27 C         -24.3701   -6.1446  -20.6989 C.ar    1  UNL1       -0.0571
     28 C         -24.4180   -7.5457  -20.5699 C.ar    1  UNL1       -0.0615
     29 C         -24.1339   -8.3677  -21.6772 C.ar    1  UNL1       -0.0617
     30 C         -23.7920   -7.7881  -22.9122 C.ar    1  UNL1       -0.0615
     31 C         -23.7523   -6.3883  -23.0433 C.ar    1  UNL1       -0.0571
     32 C         -20.1214   -6.6821  -31.5203 C.2     1  UNL1        0.0007
     33 C         -19.0975   -7.5447  -31.6488 C.2     1  UNL1       -0.0497
     34 C         -18.9454   -8.5513  -32.7052 C.ar    1  UNL1       -0.0249
     35 C         -19.9910   -8.8696  -33.6026 C.ar    1  UNL1       -0.0546
     36 C         -19.7914   -9.8218  -34.6190 C.ar    1  UNL1       -0.0612
     37 C         -18.5435  -10.4598  -34.7514 C.ar    1  UNL1       -0.0617
     38 C         -17.4944  -10.1417  -33.8687 C.ar    1  UNL1       -0.0612
     39 C         -17.6953   -9.1893  -32.8520 C.ar    1  UNL1       -0.0546
     40 H         -22.0569   -5.4054  -30.9701 H       1  UNL1        0.1498
     41 H         -20.9528   -3.3009  -29.4129 H       1  UNL1        0.0595
     42 H         -23.3519   -2.8427  -28.8452 H       1  UNL1        0.0290
     43 H         -23.8287   -4.3501  -29.5908 H       1  UNL1        0.0290
     44 H         -23.1079   -3.5424  -31.8153 H       1  UNL1        0.0301
     45 H         -22.0582   -1.3529  -32.1316 H       1  UNL1        0.0268
     46 H         -22.1145   -0.9970  -30.3300 H       1  UNL1        0.0268
     47 H         -24.5989   -1.2826  -30.2953 H       1  UNL1        0.0268
     48 H         -24.6094   -1.6135  -32.0979 H       1  UNL1        0.0268
     49 H         -20.3616   -3.2304  -27.3801 H       1  UNL1        0.1495
     50 H         -21.1548   -5.3240  -25.3942 H       1  UNL1        0.0583
     51 H         -19.2412   -4.1852  -24.0900 H       1  UNL1        0.0295
     52 H         -18.9486   -3.1768  -25.4804 H       1  UNL1        0.0295
     53 H         -18.4717   -5.2232  -26.8677 H       1  UNL1        0.0395
     54 H         -19.4807   -7.1833  -26.0196 H       1  UNL1        0.0288
     55 H         -19.3254   -6.6382  -24.3549 H       1  UNL1        0.0288
     56 H         -17.2745   -8.0595  -26.0213 H       1  UNL1        0.0462
     57 H         -17.4780   -8.0625  -24.2616 H       1  UNL1        0.0462
     58 H         -15.5270   -6.5678  -24.8302 H       1  UNL1        0.1487
     59 H         -23.9958   -3.4038  -24.0520 H       1  UNL1        0.1494
     60 H         -25.0706   -3.6854  -22.0501 H       1  UNL1        0.0512
     61 H         -23.5678   -3.5856  -21.1713 H       1  UNL1        0.0512
     62 H         -24.5980   -5.5213  -19.8473 H       1  UNL1        0.0621
     63 H         -24.6771   -7.9918  -19.6207 H       1  UNL1        0.0618
     64 H         -24.1702   -9.4424  -21.5772 H       1  UNL1        0.0618
     65 H         -23.5692   -8.4166  -23.7617 H       1  UNL1        0.0618
     66 H         -23.5096   -5.9759  -24.0105 H       1  UNL1        0.0621
     67 H         -20.9379   -6.6851  -32.2277 H       1  UNL1        0.0669
     68 H         -18.2996   -7.5246  -30.9195 H       1  UNL1        0.0625
     69 H         -20.9584   -8.3998  -33.5227 H       1  UNL1        0.0623
     70 H         -20.5956  -10.0604  -35.2993 H       1  UNL1        0.0618
     71 H         -18.3895  -11.1874  -35.5346 H       1  UNL1        0.0618
     72 H         -16.5330  -10.6228  -33.9756 H       1  UNL1        0.0618
     73 H         -16.8787   -8.9450  -32.1875 H       1  UNL1        0.0623
@<TRIPOS>BOND
     1     1     2    2
     2     2     3   am
     3     2    32    1
     4     3     4    1
     5     3    40    1
     6     4     5    1
     7     4     9    1
     8     4    41    1
     9     5     6    1
    10     5    42    1
    11     5    43    1
    12     6     8    1
    13     6     7    1
    14     6    44    1
    15     7     8    1
    16     7    45    1
    17     7    46    1
    18     8    47    1
    19     8    48    1
    20     9    10    2
    21     9    11   am
    22    11    12    1
    23    11    49    1
    24    12    13    1
    25    12    20    1
    26    12    50    1
    27    13    14    1
    28    13    51    1
    29    13    52    1
    30    14    18    1
    31    14    15    1
    32    14    53    1
    33    15    16    1
    34    15    54    1
    35    15    55    1
    36    16    17    1
    37    16    56    1
    38    16    57    1
    39    17    18   am
    40    17    58    1
    41    18    19    2
    42    20    21    2
    43    20    22    1
    44    22    23    2
    45    22    24   am
    46    24    25    1
    47    24    59    1
    48    25    26    1
    49    25    60    1
    50    25    61    1
    51    26    31   ar
    52    26    27   ar
    53    27    28   ar
    54    27    62    1
    55    28    29   ar
    56    28    63    1
    57    29    30   ar
    58    29    64    1
    59    30    31   ar
    60    30    65    1
    61    31    66    1
    62    32    33    2
    63    32    67    1
    64    33    34    1
    65    33    68    1
    66    34    39   ar
    67    34    35   ar
    68    35    36   ar
    69    35    69    1
    70    36    37   ar
    71    36    70    1
    72    37    38   ar
    73    37    71    1
    74    38    39   ar
    75    38    72    1
    76    39    73    1
