
                    3D
 Schrodinger Suite 2019-4.
 64 69  0  0  1  0            999 V2000
  -22.8757   -3.3345  -22.7973 C   0  0  0  0  0  0
  -21.5830   -3.8128  -23.1651 O   0  0  0  0  0  0
  -21.3357   -4.1017  -24.4931 C   0  0  0  0  0  0
  -20.0967   -4.6515  -24.8185 C   0  0  0  0  0  0
  -19.7759   -4.9852  -26.1334 C   0  0  0  0  0  0
  -18.5782   -5.5982  -26.3653 O   0  0  0  0  0  0
  -20.6679   -4.7168  -27.1788 C   0  0  0  0  0  0
  -20.3825   -5.0162  -28.6218 C   0  0  0  0  0  0
  -19.2973   -5.4534  -28.9986 O   0  0  0  0  0  0
  -21.5033   -4.7482  -29.5146 C   0  0  0  0  0  0
  -22.6525   -4.2143  -29.0574 C   0  0  0  0  0  0
  -23.8855   -3.9510  -29.8231 C   0  0  0  0  0  0
  -23.9102   -3.6267  -31.1807 C   0  0  0  0  0  0
  -25.1288   -3.3895  -31.8200 C   0  0  0  0  0  0
  -26.3460   -3.5158  -31.1251 C   0  0  0  0  0  0
  -27.5730   -3.2623  -31.7091 O   0  0  0  0  0  0
  -27.6417   -2.4265  -32.8597 C   0  0  0  0  0  0
  -26.3295   -3.8944  -29.7682 C   0  0  0  0  0  0
  -27.5542   -4.0545  -28.9154 C   0  0  0  0  0  0
  -28.4973   -3.0298  -28.8290 C   0  0  0  0  0  0
  -28.3725   -1.8850  -29.5651 O   0  0  0  0  0  0
  -29.5720   -3.1207  -27.9615 C   0  0  0  0  0  0
  -29.7800   -4.2559  -27.1994 C   0  0  0  0  0  0
  -30.8591   -4.2438  -26.3650 O   0  0  0  0  0  0
  -28.8763   -5.3228  -27.2621 C   0  0  0  0  0  0
  -29.0598   -6.5873  -26.4762 C   0  0  0  0  0  0
  -30.0957   -6.8884  -25.8864 O   0  0  0  0  0  0
  -27.8688   -7.4082  -26.4225 C   0  0  0  0  0  0
  -26.7774   -7.1380  -27.1643 C   0  0  0  0  0  0
  -25.5232   -7.9314  -27.1453 C   0  0  0  0  0  0
  -24.2917   -7.3049  -27.3792 C   0  0  0  0  0  0
  -23.1010   -8.0224  -27.3041 C   0  0  0  0  0  0
  -23.1359   -9.3781  -26.9919 C   0  0  0  0  0  0
  -21.9690  -10.0892  -26.9071 O   0  0  0  0  0  0
  -24.3472  -10.0199  -26.7591 C   0  0  0  0  0  0
  -25.5362   -9.2983  -26.8309 C   0  0  0  0  0  0
  -26.7445   -6.1405  -28.0884 O   0  0  0  0  0  0
  -27.7480   -5.1849  -28.0915 C   0  0  0  0  0  0
  -25.0997   -4.0711  -29.1485 C   0  0  0  0  0  0
  -22.8354   -3.8168  -27.7751 O   0  0  0  0  0  0
  -21.8920   -4.1357  -26.8381 C   0  0  0  0  0  0
  -22.2423   -3.8533  -25.5270 C   0  0  0  0  0  0
  -22.8843   -3.0528  -21.7461 H   0  0  0  0  0  0
  -23.1719   -2.4476  -23.3582 H   0  0  0  0  0  0
  -23.6331   -4.1071  -22.9398 H   0  0  0  0  0  0
  -19.3794   -4.8302  -24.0309 H   0  0  0  0  0  0
  -18.4720   -5.8130  -27.2977 H   0  0  0  0  0  0
  -21.4236   -5.0380  -30.5516 H   0  0  0  0  0  0
  -22.9881   -3.5362  -31.7383 H   0  0  0  0  0  0
  -25.1121   -3.1109  -32.8610 H   0  0  0  0  0  0
  -28.6878   -2.2505  -33.1107 H   0  0  0  0  0  0
  -27.1774   -1.4537  -32.6829 H   0  0  0  0  0  0
  -27.1737   -2.8866  -33.7245 H   0  0  0  0  0  0
  -27.8189   -2.0592  -30.3343 H   0  0  0  0  0  0
  -30.2483   -2.2871  -27.8678 H   0  0  0  0  0  0
  -31.4144   -3.4658  -26.4822 H   0  0  0  0  0  0
  -27.8594   -8.2366  -25.7330 H   0  0  0  0  0  0
  -24.2465   -6.2514  -27.6009 H   0  0  0  0  0  0
  -22.1607   -7.5199  -27.4772 H   0  0  0  0  0  0
  -21.1897   -9.5443  -27.0413 H   0  0  0  0  0  0
  -24.3655  -11.0722  -26.5165 H   0  0  0  0  0  0
  -26.4687   -9.8115  -26.6432 H   0  0  0  0  0  0
  -25.0986   -4.3039  -28.0943 H   0  0  0  0  0  0
  -23.2141   -3.4257  -25.3479 H   0  0  0  0  0  0
  1  2  1  0  0  0
  1 43  1  0  0  0
  1 44  1  0  0  0
  1 45  1  0  0  0
  2  3  1  0  0  0
  3 42  1  0  0  0
  3  4  2  0  0  0
  4  5  1  0  0  0
  4 46  1  0  0  0
  5  6  1  0  0  0
  5  7  2  0  0  0
  6 47  1  0  0  0
  7 41  1  0  0  0
  7  8  1  0  0  0
  8  9  2  0  0  0
  8 10  1  0  0  0
 10 11  2  0  0  0
 10 48  1  0  0  0
 11 12  1  0  0  0
 11 40  1  0  0  0
 12 39  1  0  0  0
 12 13  2  0  0  0
 13 14  1  0  0  0
 13 49  1  0  0  0
 14 15  2  0  0  0
 14 50  1  0  0  0
 15 16  1  0  0  0
 15 18  1  0  0  0
 16 17  1  0  0  0
 17 51  1  0  0  0
 17 52  1  0  0  0
 17 53  1  0  0  0
 18 19  1  0  0  0
 18 39  2  0  0  0
 19 38  1  0  0  0
 19 20  2  0  0  0
 20 21  1  0  0  0
 20 22  1  0  0  0
 21 54  1  0  0  0
 22 23  2  0  0  0
 22 55  1  0  0  0
 23 24  1  0  0  0
 23 25  1  0  0  0
 24 56  1  0  0  0
 25 38  2  0  0  0
 25 26  1  0  0  0
 26 27  2  0  0  0
 26 28  1  0  0  0
 28 29  2  0  0  0
 28 57  1  0  0  0
 29 30  1  0  0  0
 29 37  1  0  0  0
 30 36  1  0  0  0
 30 31  2  0  0  0
 31 32  1  0  0  0
 31 58  1  0  0  0
 32 33  2  0  0  0
 32 59  1  0  0  0
 33 34  1  0  0  0
 33 35  1  0  0  0
 34 60  1  0  0  0
 35 36  2  0  0  0
 35 61  1  0  0  0
 36 62  1  0  0  0
 37 38  1  0  0  0
 39 63  1  0  0  0
 40 41  1  0  0  0
 41 42  2  0  0  0
 42 64  1  0  0  0
M  END
$$$$
