@<TRIPOS>MOLECULE
*****
 64 69 0 0 0
SMALL
GASTEIGER
****
Schrodinger Suite 2019-4.
@<TRIPOS>ATOM
      1 C         -22.8757   -3.3345  -22.7973 C.3     1  UNL1        0.0788
      2 O         -21.5830   -3.8128  -23.1651 O.3     1  UNL1       -0.4949
      3 C         -21.3357   -4.1017  -24.4931 C.ar    1  UNL1        0.1271
      4 C         -20.0967   -4.6515  -24.8185 C.ar    1  UNL1        0.0225
      5 C         -19.7759   -4.9852  -26.1334 C.ar    1  UNL1        0.1347
      6 O         -18.5782   -5.5982  -26.3653 O.3     1  UNL1       -0.5058
      7 C         -20.6679   -4.7168  -27.1788 C.ar    1  UNL1        0.1055
      8 C         -20.3825   -5.0162  -28.6218 C.ar    1  UNL1        0.1966
      9 O         -19.2973   -5.4534  -28.9986 O.2     1  UNL1       -0.2869
     10 C         -21.5033   -4.7482  -29.5146 C.ar    1  UNL1        0.0288
     11 C         -22.6525   -4.2143  -29.0574 C.ar    1  UNL1        0.1392
     12 C         -23.8855   -3.9510  -29.8231 C.ar    1  UNL1        0.0182
     13 C         -23.9102   -3.6267  -31.1807 C.ar    1  UNL1       -0.0476
     14 C         -25.1288   -3.3895  -31.8200 C.ar    1  UNL1       -0.0187
     15 C         -26.3460   -3.5158  -31.1251 C.ar    1  UNL1        0.1280
     16 O         -27.5730   -3.2623  -31.7091 O.3     1  UNL1       -0.4945
     17 C         -27.6417   -2.4265  -32.8597 C.3     1  UNL1        0.0788
     18 C         -26.3295   -3.8944  -29.7682 C.ar    1  UNL1        0.0315
     19 C         -27.5542   -4.0545  -28.9154 C.ar    1  UNL1        0.0702
     20 C         -28.4973   -3.0298  -28.8290 C.ar    1  UNL1        0.1317
     21 O         -28.3725   -1.8850  -29.5651 O.3     1  UNL1       -0.5059
     22 C         -29.5720   -3.1207  -27.9615 C.ar    1  UNL1        0.0229
     23 C         -29.7800   -4.2559  -27.1994 C.ar    1  UNL1        0.1347
     24 O         -30.8591   -4.2438  -26.3650 O.3     1  UNL1       -0.5058
     25 C         -28.8763   -5.3228  -27.2621 C.ar    1  UNL1        0.1061
     26 C         -29.0598   -6.5873  -26.4762 C.ar    1  UNL1        0.1966
     27 O         -30.0957   -6.8884  -25.8864 O.2     1  UNL1       -0.2869
     28 C         -27.8688   -7.4082  -26.4225 C.ar    1  UNL1        0.0288
     29 C         -26.7774   -7.1380  -27.1643 C.ar    1  UNL1        0.1393
     30 C         -25.5232   -7.9314  -27.1453 C.ar    1  UNL1        0.0176
     31 C         -24.2917   -7.3049  -27.3792 C.ar    1  UNL1       -0.0476
     32 C         -23.1010   -8.0224  -27.3041 C.ar    1  UNL1       -0.0195
     33 C         -23.1359   -9.3781  -26.9919 C.ar    1  UNL1        0.1169
     34 O         -21.9690  -10.0892  -26.9071 O.3     1  UNL1       -0.5068
     35 C         -24.3472  -10.0199  -26.7591 C.ar    1  UNL1       -0.0195
     36 C         -25.5362   -9.2983  -26.8309 C.ar    1  UNL1       -0.0476
     37 O         -26.7445   -6.1405  -28.0884 O.2     1  UNL1       -0.4537
     38 C         -27.7480   -5.1849  -28.0915 C.ar    1  UNL1        0.1541
     39 C         -25.0997   -4.0711  -29.1485 C.ar    1  UNL1       -0.0396
     40 O         -22.8354   -3.8168  -27.7751 O.2     1  UNL1       -0.4544
     41 C         -21.8920   -4.1357  -26.8381 C.ar    1  UNL1        0.1462
     42 C         -22.2423   -3.8533  -25.5270 C.ar    1  UNL1        0.0233
     43 H         -22.8843   -3.0528  -21.7461 H       1  UNL1        0.0660
     44 H         -23.1719   -2.4476  -23.3582 H       1  UNL1        0.0660
     45 H         -23.6331   -4.1071  -22.9398 H       1  UNL1        0.0660
     46 H         -19.3794   -4.8302  -24.0309 H       1  UNL1        0.0691
     47 H         -18.4720   -5.8130  -27.2977 H       1  UNL1        0.2922
     48 H         -21.4236   -5.0380  -30.5516 H       1  UNL1        0.0693
     49 H         -22.9881   -3.5362  -31.7383 H       1  UNL1        0.0626
     50 H         -25.1121   -3.1109  -32.8610 H       1  UNL1        0.0654
     51 H         -28.6878   -2.2505  -33.1107 H       1  UNL1        0.0660
     52 H         -27.1774   -1.4537  -32.6829 H       1  UNL1        0.0660
     53 H         -27.1737   -2.8866  -33.7245 H       1  UNL1        0.0660
     54 H         -27.8189   -2.0592  -30.3343 H       1  UNL1        0.2922
     55 H         -30.2483   -2.2871  -27.8678 H       1  UNL1        0.0691
     56 H         -31.4144   -3.4658  -26.4822 H       1  UNL1        0.2922
     57 H         -27.8594   -8.2366  -25.7330 H       1  UNL1        0.0693
     58 H         -24.2465   -6.2514  -27.6009 H       1  UNL1        0.0626
     59 H         -22.1607   -7.5199  -27.4772 H       1  UNL1        0.0654
     60 H         -21.1897   -9.5443  -27.0413 H       1  UNL1        0.2921
     61 H         -24.3655  -11.0722  -26.5165 H       1  UNL1        0.0654
     62 H         -26.4687   -9.8115  -26.6432 H       1  UNL1        0.0626
     63 H         -25.0986   -4.3039  -28.0943 H       1  UNL1        0.0632
     64 H         -23.2141   -3.4257  -25.3479 H       1  UNL1        0.0691
@<TRIPOS>BOND
     1     1     2    1
     2     1    43    1
     3     1    44    1
     4     1    45    1
     5     2     3    1
     6     3    42   ar
     7     3     4   ar
     8     4     5   ar
     9     4    46    1
    10     5     6    1
    11     5     7   ar
    12     6    47    1
    13     7    41   ar
    14     7     8   ar
    15     8     9    2
    16     8    10   ar
    17    10    11   ar
    18    10    48    1
    19    11    12    1
    20    11    40   ar
    21    12    39   ar
    22    12    13   ar
    23    13    14   ar
    24    13    49    1
    25    14    15   ar
    26    14    50    1
    27    15    16    1
    28    15    18   ar
    29    16    17    1
    30    17    51    1
    31    17    52    1
    32    17    53    1
    33    18    19    1
    34    18    39   ar
    35    19    38   ar
    36    19    20   ar
    37    20    21    1
    38    20    22   ar
    39    21    54    1
    40    22    23   ar
    41    22    55    1
    42    23    24    1
    43    23    25   ar
    44    24    56    1
    45    25    38   ar
    46    25    26   ar
    47    26    27    2
    48    26    28   ar
    49    28    29   ar
    50    28    57    1
    51    29    30    1
    52    29    37   ar
    53    30    36   ar
    54    30    31   ar
    55    31    32   ar
    56    31    58    1
    57    32    33   ar
    58    32    59    1
    59    33    34    1
    60    33    35   ar
    61    34    60    1
    62    35    36   ar
    63    35    61    1
    64    36    62    1
    65    37    38   ar
    66    39    63    1
    67    40    41   ar
    68    41    42   ar
    69    42    64    1
