@<TRIPOS>MOLECULE
/home/lixiaoshuang.lxs/med/data/m_pro/PDB_BA/6wtj/6wtj_ligand.pdb
 29 30 0 0 0
SMALL
GASTEIGER

@<TRIPOS>ATOM
      1  C7       -13.9890   16.4560    0.0490 C.3   401  K36401      0.2368
      2  O8       -14.7890   15.5330   -0.6770 O.3   401  K36401     -0.4285
      3  C9       -15.1960   14.4000    0.0630 C.2   401  K36401      0.4218
      4  O10      -15.1260   14.3940    1.2450 O.2   401  K36401     -0.2245
      5  C1       -12.4910   16.2430   -0.2430 C.ar  401  K36401      0.0213
      6  C2       -11.5440   17.0420    0.3940 C.ar  401  K36401     -0.0007
      7  C3       -10.1840   16.8790    0.1400 C.ar  401  K36401     -0.0002
      8  C4        -9.7720   15.8970   -0.7480 C.ar  401  K36401     -0.0000
      9  C5       -10.7150   15.0880   -1.3860 C.ar  401  K36401     -0.0002
     10  C6       -12.0740   15.2590   -1.1400 C.ar  401  K36401     -0.0007
     11  N11      -15.7070   13.2200   -0.6410 N.am  401  K36401     -0.1611
     12  C12      -15.8070   11.9770    0.0980 C.3   401  K36401      0.1761
     13  C17      -14.3850   11.5450    0.4650 C.2   401  K36401      0.2614
     14  O18      -13.5010   11.6630   -0.3190 O.2   401  K36401     -0.2715
     15  C13      -16.4420   10.8910   -0.7390 C.3   401  K36401      0.0312
     16  C14      -17.9180   11.2350   -0.9430 C.3   401  K36401      0.0022
     17  C15      -18.6330   11.2510    0.4030 C.3   401  K36401      0.0001
     18  C16      -18.5770   10.2140   -1.8780 C.3   401  K36401      0.0001
     19  N19      -14.1530   10.9980    1.8090 N.am  401  K36401     -0.2030
     20  C20      -12.8200   10.5610    2.2290 C.3   401  K36401      0.1287
     21  C21      -12.9940    9.0760    2.5670 C.3   401  K36401      0.2036
     22  O22      -11.7530    8.4480    2.6910 O.3   401  K36401     -0.2185
     23  C24      -12.3510   11.3800    3.4460 C.3   401  K36401      0.0335
     24  C25      -11.9560   12.8450    3.0340 C.3   401  K36401      0.0818
     25  C26      -10.7300   12.8160    2.1010 C.3   401  K36401      0.0326
     26  C27      -10.0770   14.1290    2.2810 C.3   401  K36401      0.1156
     27  N28      -10.3870   14.5250    3.7070 N.am  401  K36401     -0.2054
     28  C29      -11.5680   13.6910    4.1410 C.2   401  K36401      0.2410
     29  O30      -12.0810   13.7580    5.2070 O.2   401  K36401     -0.2734
@<TRIPOS>BOND
     1    18    16    1
     2     9    10   ar
     3     9     8   ar
     4    10     5   ar
     5    16    15    1
     6    16    17    1
     7     8     7   ar
     8    15    12    1
     9     2     1    1
    10     2     3    1
    11    11     3   am
    12    11    12    1
    13    14    13    2
    14     5     1    1
    15     5     6   ar
    16     3     4    2
    17    12    13    1
    18     7     6   ar
    19    13    19   am
    20    19    20    1
    21    25    26    1
    22    25    24    1
    23    20    21    1
    24    20    23    1
    25    26    27    1
    26    21    22    1
    27    24    23    1
    28    24    28    1
    29    27    28   am
    30    28    29    2
