@<TRIPOS>MOLECULE
*****
 66 68 0 0 0
SMALL
GASTEIGER
****
Schrodinger Suite 2019-4.
@<TRIPOS>ATOM
      1 C         -25.3627   -1.9580  -23.1849 C.3     1  UNL1        0.0127
      2 N         -24.6225   -3.0422  -23.7910 N.ar    1  UNL1       -0.3391
      3 C         -25.1234   -4.1301  -24.4498 C.ar    1  UNL1        0.0965
      4 N         -24.1979   -4.8867  -24.9861 N.ar    1  UNL1       -0.2311
      5 C         -23.0456   -4.3022  -24.6853 C.ar    1  UNL1        0.1436
      6 C         -21.7407   -4.8141  -25.0374 C.2     1  UNL1        0.2716
      7 O         -20.9599   -4.9981  -24.1041 O.2     1  UNL1       -0.2679
      8 N         -21.4302   -5.0361  -26.3594 N.am    1  UNL1       -0.2500
      9 C         -22.2977   -4.5975  -27.3930 C.ar    1  UNL1        0.0378
     10 C         -23.1914   -5.4695  -28.0203 C.ar    1  UNL1       -0.0400
     11 C         -23.9151   -5.0423  -29.1324 C.ar    1  UNL1       -0.0563
     12 C         -23.7677   -3.7355  -29.6300 C.ar    1  UNL1       -0.0419
     13 C         -24.4747   -3.2590  -30.9256 C.3     1  UNL1       -0.0127
     14 C         -25.4188   -2.0826  -30.6082 C.3     1  UNL1       -0.0560
     15 C         -25.3303   -4.3608  -31.5941 C.3     1  UNL1       -0.0560
     16 C         -23.4120   -2.8144  -31.9614 C.3     1  UNL1       -0.0560
     17 C         -22.9284   -2.8520  -28.9375 C.ar    1  UNL1       -0.0563
     18 C         -22.2008   -3.2763  -27.8280 C.ar    1  UNL1       -0.0400
     19 C         -20.2453   -5.8460  -26.8083 C.3     1  UNL1        0.1338
     20 C         -20.5707   -7.3054  -27.2220 C.2     1  UNL1        0.2389
     21 O         -21.5235   -7.9004  -26.7210 O.2     1  UNL1       -0.2734
     22 N         -19.7293   -7.8433  -28.1284 N.am    1  UNL1       -0.3087
     23 C         -19.7438   -9.1940  -28.6965 C.3     1  UNL1        0.0262
     24 C         -19.4857  -10.2540  -27.6032 C.3     1  UNL1       -0.0442
     25 C         -18.5963   -9.2616  -29.7263 C.3     1  UNL1       -0.0442
     26 C         -21.0750   -9.4873  -29.4269 C.3     1  UNL1       -0.0442
     27 C         -18.9359   -5.6743  -26.0388 C.ar    1  UNL1        0.0002
     28 C         -18.1877   -6.7534  -25.5284 C.ar    1  UNL1       -0.0534
     29 C         -16.9318   -6.5381  -24.9664 C.ar    1  UNL1       -0.0433
     30 C         -16.4530   -5.2321  -24.9034 C.ar    1  UNL1        0.0276
     31 N         -17.1675   -4.1645  -25.3346 N.ar    1  UNL1       -0.2629
     32 C         -18.3852   -4.3953  -25.8895 C.ar    1  UNL1        0.0330
     33 C         -23.2659   -3.1660  -23.9101 C.ar    1  UNL1        0.0361
     34 H         -26.3260   -1.8537  -23.6817 H       1  UNL1        0.0456
     35 H         -25.5177   -2.1606  -22.1243 H       1  UNL1        0.0456
     36 H         -24.8060   -1.0291  -23.3078 H       1  UNL1        0.0456
     37 H         -26.1919   -4.2898  -24.4988 H       1  UNL1        0.1029
     38 H         -23.3151   -6.4855  -27.6786 H       1  UNL1        0.0636
     39 H         -24.5624   -5.7617  -29.6090 H       1  UNL1        0.0621
     40 H         -25.9159   -1.7080  -31.5039 H       1  UNL1        0.0238
     41 H         -26.1957   -2.4069  -29.9144 H       1  UNL1        0.0238
     42 H         -24.8893   -1.2423  -30.1609 H       1  UNL1        0.0238
     43 H         -25.8209   -4.0030  -32.5005 H       1  UNL1        0.0238
     44 H         -24.7131   -5.2070  -31.8835 H       1  UNL1        0.0238
     45 H         -26.1154   -4.7268  -30.9346 H       1  UNL1        0.0238
     46 H         -23.8695   -2.5171  -32.9029 H       1  UNL1        0.0238
     47 H         -22.8183   -1.9693  -31.6125 H       1  UNL1        0.0238
     48 H         -22.7248   -3.6295  -32.1885 H       1  UNL1        0.0238
     49 H         -22.7993   -1.8316  -29.2706 H       1  UNL1        0.0621
     50 H         -21.5256   -2.5888  -27.3363 H       1  UNL1        0.0636
     51 H         -20.0511   -5.4283  -27.7969 H       1  UNL1        0.0652
     52 H         -18.9729   -7.2618  -28.4498 H       1  UNL1        0.1493
     53 H         -19.4658  -11.2625  -28.0188 H       1  UNL1        0.0250
     54 H         -18.5281  -10.0852  -27.1073 H       1  UNL1        0.0250
     55 H         -20.2549  -10.2359  -26.8300 H       1  UNL1        0.0250
     56 H         -18.5371  -10.2413  -30.2027 H       1  UNL1        0.0250
     57 H         -18.7204   -8.5242  -30.5219 H       1  UNL1        0.0250
     58 H         -17.6255   -9.0706  -29.2627 H       1  UNL1        0.0250
     59 H         -21.0587  -10.4607  -29.9182 H       1  UNL1        0.0250
     60 H         -21.9235   -9.4906  -28.7428 H       1  UNL1        0.0250
     61 H         -21.2823   -8.7412  -30.1946 H       1  UNL1        0.0250
     62 H         -18.5446   -7.7720  -25.5872 H       1  UNL1        0.0622
     63 H         -16.3310   -7.3651  -24.6093 H       1  UNL1        0.0633
     64 H         -15.4676   -5.0380  -24.5074 H       1  UNL1        0.0829
     65 H         -18.9171   -3.5250  -26.2432 H       1  UNL1        0.0833
     66 H         -22.5924   -2.4440  -23.4710 H       1  UNL1        0.0832
@<TRIPOS>BOND
     1     1     2    1
     2     1    34    1
     3     1    35    1
     4     1    36    1
     5     2    33   ar
     6     2     3   ar
     7     3     4   ar
     8     3    37    1
     9     4     5   ar
    10     5     6    1
    11     5    33   ar
    12     6     7    2
    13     6     8   am
    14     8     9    1
    15     8    19    1
    16     9    18   ar
    17     9    10   ar
    18    10    11   ar
    19    10    38    1
    20    11    12   ar
    21    11    39    1
    22    12    13    1
    23    12    17   ar
    24    13    14    1
    25    13    15    1
    26    13    16    1
    27    14    40    1
    28    14    41    1
    29    14    42    1
    30    15    43    1
    31    15    44    1
    32    15    45    1
    33    16    46    1
    34    16    47    1
    35    16    48    1
    36    17    18   ar
    37    17    49    1
    38    18    50    1
    39    19    20    1
    40    19    27    1
    41    19    51    1
    42    20    21    2
    43    20    22   am
    44    22    23    1
    45    22    52    1
    46    23    24    1
    47    23    25    1
    48    23    26    1
    49    24    53    1
    50    24    54    1
    51    24    55    1
    52    25    56    1
    53    25    57    1
    54    25    58    1
    55    26    59    1
    56    26    60    1
    57    26    61    1
    58    27    32   ar
    59    27    28   ar
    60    28    29   ar
    61    28    62    1
    62    29    30   ar
    63    29    63    1
    64    30    31   ar
    65    30    64    1
    66    31    32   ar
    67    32    65    1
    68    33    66    1
