@<TRIPOS>MOLECULE
/home/lixiaoshuang.lxs/med/data/m_pro/PDB_BA/2z94/2z94_ligand.pdb
 9 9 0 0 0
SMALL
GASTEIGER

@<TRIPOS>ATOM
      1  C1        18.5010   -6.0130   26.1120 C.ar  902  TLD902      0.0072
      2  C2        17.7740   -5.4730   24.9260 C.ar  902  TLD902      0.0421
      3  C3        17.9250   -4.1350   24.5660 C.ar  902  TLD902      0.0418
      4  C4        18.8100   -3.2550   25.3750 C.ar  902  TLD902      0.0032
      5  C5        19.4650   -3.7650   26.4600 C.ar  902  TLD902     -0.0213
      6  C6        19.3010   -5.2040   26.8460 C.ar  902  TLD902     -0.0037
      7  C13       20.3530   -2.8750   27.2820 C.3   902  TLD902      0.0310
      8  S15       16.7180   -6.5950   23.9980 S.3   902  TLD902     -0.0502
      9  S17       17.0640   -3.4260   23.1550 S.3   902  TLD902     -0.0502
@<TRIPOS>BOND
     1     9     3    1
     2     8     2    1
     3     3     2   ar
     4     3     4   ar
     5     2     1   ar
     6     4     5   ar
     7     1     6   ar
     8     5     6   ar
     9     5     7    1
