@<TRIPOS>MOLECULE
*****
 97 99 0 0 0
SMALL
GASTEIGER
****
Schrodinger Suite 2019-4.
@<TRIPOS>ATOM
      1 C         -16.9887  -12.5631  -39.0706 C.3     1  UNL1       -0.0037
      2 C         -17.5901  -11.5296  -38.1840 C.ar    1  UNL1        0.1350
      3 C         -17.3272  -11.1377  -36.9033 C.ar    1  UNL1        0.0125
      4 C         -18.2381  -10.0653  -36.6947 C.ar    1  UNL1        0.1678
      5 C         -18.1904   -9.2369  -35.4499 C.2     1  UNL1        0.2663
      6 O         -17.6707   -9.6493  -34.4132 O.2     1  UNL1       -0.2684
      7 N         -18.6454   -7.9896  -35.6181 N.am    1  UNL1       -0.2990
      8 C         -18.5067   -6.9057  -34.6606 C.3     1  UNL1        0.0969
      9 C         -18.5447   -5.6038  -35.4625 C.3     1  UNL1       -0.0381
     10 C         -19.6835   -6.9295  -33.6815 C.2     1  UNL1        0.2337
     11 O         -20.8124   -7.2376  -34.0682 O.2     1  UNL1       -0.2738
     12 N         -19.4048   -6.6127  -32.4091 N.am    1  UNL1       -0.3022
     13 C         -20.3247   -6.7871  -31.2885 C.3     1  UNL1        0.1017
     14 C         -20.3459   -5.5196  -30.4328 C.2     1  UNL1        0.2342
     15 O         -19.2970   -5.0819  -29.9631 O.2     1  UNL1       -0.2738
     16 N         -21.5492   -4.9832  -30.1712 N.am    1  UNL1       -0.3025
     17 C         -21.7802   -3.8601  -29.2670 C.3     1  UNL1        0.0996
     18 C         -23.1978   -3.2850  -29.4840 C.3     1  UNL1       -0.0236
     19 C         -23.4030   -2.5880  -30.8501 C.3     1  UNL1       -0.0446
     20 C         -24.4434   -1.4684  -30.7326 C.3     1  UNL1       -0.0626
     21 C         -23.8117   -3.5658  -31.9614 C.3     1  UNL1       -0.0626
     22 C         -21.6337   -4.3626  -27.8214 C.2     1  UNL1        0.2338
     23 O         -22.3417   -5.2847  -27.4125 O.2     1  UNL1       -0.2738
     24 N         -20.6656   -3.7957  -27.0850 N.am    1  UNL1       -0.3075
     25 C         -20.1866   -4.3236  -25.8109 C.3     1  UNL1        0.0427
     26 C         -20.7647   -3.5745  -24.6529 C.2     1  UNL1       -0.0572
     27 C         -21.7899   -3.9516  -23.8900 C.2     1  UNL1        0.0203
     28 C         -22.1861   -3.0736  -22.8010 C.2     1  UNL1        0.3320
     29 O         -21.8710   -1.8963  -22.6947 O.2     1  UNL1       -0.2456
     30 O         -22.9798   -3.6792  -21.9680 O.3     1  UNL1       -0.4568
     31 C         -23.8059   -2.8699  -21.1783 C.3     1  UNL1        0.1178
     32 C         -24.9424   -3.6943  -20.7021 C.ar    1  UNL1       -0.0103
     33 C         -26.0208   -3.8667  -21.5757 C.ar    1  UNL1       -0.0554
     34 C         -27.0254   -4.7818  -21.2444 C.ar    1  UNL1       -0.0614
     35 C         -27.0159   -5.4263  -19.9929 C.ar    1  UNL1       -0.0617
     36 C         -25.9466   -5.2224  -19.1042 C.ar    1  UNL1       -0.0614
     37 C         -24.8830   -4.3906  -19.4832 C.ar    1  UNL1       -0.0554
     38 C         -18.6634   -4.1825  -25.7039 C.3     1  UNL1       -0.0197
     39 C         -17.8837   -5.4195  -26.1414 C.3     1  UNL1        0.0389
     40 C         -18.3087   -6.7333  -25.4573 C.3     1  UNL1       -0.0262
     41 C         -17.0060   -7.4876  -25.1763 C.3     1  UNL1        0.0123
     42 N         -15.9995   -6.4510  -25.1942 N.am    1  UNL1       -0.3151
     43 C         -16.4367   -5.3026  -25.6970 C.2     1  UNL1        0.2162
     44 O         -15.7812   -4.2696  -25.7913 O.2     1  UNL1       -0.2755
     45 C         -19.9402   -8.0497  -30.4688 C.3     1  UNL1       -0.0197
     46 C         -19.7414   -9.3124  -31.3295 C.3     1  UNL1       -0.0605
     47 C         -20.9823   -8.3309  -29.3755 C.3     1  UNL1       -0.0605
     48 N         -19.0342   -9.8851  -37.7345 N.ar    1  UNL1       -0.0734
     49 O         -18.6030  -10.7919  -38.7066 O.2     1  UNL1       -0.3592
     50 H         -16.3987  -13.2779  -38.4948 H       1  UNL1        0.0309
     51 H         -17.7637  -13.1152  -39.6036 H       1  UNL1        0.0309
     52 H         -16.3342  -12.0976  -39.8073 H       1  UNL1        0.0309
     53 H         -16.5682  -11.5250  -36.2403 H       1  UNL1        0.0676
     54 H         -19.0407   -7.7564  -36.5181 H       1  UNL1        0.1498
     55 H         -17.5600   -6.9869  -34.1230 H       1  UNL1        0.0592
     56 H         -18.3837   -4.7496  -34.8135 H       1  UNL1        0.0252
     57 H         -17.7524   -5.5919  -36.2089 H       1  UNL1        0.0252
     58 H         -19.4926   -5.4679  -35.9825 H       1  UNL1        0.0252
     59 H         -18.4584   -6.3400  -32.1752 H       1  UNL1        0.1495
     60 H         -21.3376   -6.9343  -31.6692 H       1  UNL1        0.0597
     61 H         -22.3657   -5.4173  -30.5754 H       1  UNL1        0.1495
     62 H         -21.0410   -3.0889  -29.4688 H       1  UNL1        0.0594
     63 H         -23.3663   -2.5456  -28.6994 H       1  UNL1        0.0290
     64 H         -23.9625   -4.0490  -29.3320 H       1  UNL1        0.0290
     65 H         -22.4657   -2.1158  -31.1494 H       1  UNL1        0.0296
     66 H         -24.7166   -1.0673  -31.7054 H       1  UNL1        0.0232
     67 H         -25.3526   -1.8195  -30.2492 H       1  UNL1        0.0232
     68 H         -24.0445   -0.6431  -30.1462 H       1  UNL1        0.0232
     69 H         -23.9852   -3.0355  -32.8944 H       1  UNL1        0.0232
     70 H         -23.0496   -4.3156  -32.1624 H       1  UNL1        0.0232
     71 H         -24.7296   -4.0872  -31.6994 H       1  UNL1        0.0232
     72 H         -20.1615   -3.0172  -27.4851 H       1  UNL1        0.1493
     73 H         -20.4898   -5.3661  -25.7021 H       1  UNL1        0.0543
     74 H         -20.2412   -2.6737  -24.4077 H       1  UNL1        0.0593
     75 H         -22.3247   -4.8745  -24.0602 H       1  UNL1        0.0686
     76 H         -24.2277   -2.1466  -21.8640 H       1  UNL1        0.0749
     77 H         -23.2858   -2.3491  -20.3753 H       1  UNL1        0.0749
     78 H         -26.0278   -3.3723  -22.5351 H       1  UNL1        0.0621
     79 H         -27.7954   -5.0006  -21.9696 H       1  UNL1        0.0618
     80 H         -27.8141   -6.1047  -19.7294 H       1  UNL1        0.0618
     81 H         -25.9258   -5.7324  -18.1519 H       1  UNL1        0.0618
     82 H         -24.0572   -4.2670  -18.8090 H       1  UNL1        0.0621
     83 H         -18.3864   -3.9867  -24.6644 H       1  UNL1        0.0293
     84 H         -18.3264   -3.3036  -26.2560 H       1  UNL1        0.0293
     85 H         -17.9136   -5.5313  -27.2261 H       1  UNL1        0.0395
     86 H         -18.9885   -7.3208  -26.0758 H       1  UNL1        0.0288
     87 H         -18.8158   -6.5317  -24.5112 H       1  UNL1        0.0288
     88 H         -16.7818   -8.2109  -25.9610 H       1  UNL1        0.0462
     89 H         -17.0248   -8.0087  -24.2184 H       1  UNL1        0.0462
     90 H         -15.0545   -6.6005  -24.8607 H       1  UNL1        0.1487
     91 H         -18.9865   -7.8621  -29.9708 H       1  UNL1        0.0318
     92 H         -19.5524  -10.1894  -30.7103 H       1  UNL1        0.0233
     93 H         -20.6238   -9.5214  -31.9348 H       1  UNL1        0.0233
     94 H         -18.8872   -9.2147  -31.9984 H       1  UNL1        0.0233
     95 H         -20.8025   -9.2869  -28.8871 H       1  UNL1        0.0233
     96 H         -20.9695   -7.5629  -28.6016 H       1  UNL1        0.0233
     97 H         -21.9902   -8.3727  -29.7892 H       1  UNL1        0.0233
@<TRIPOS>BOND
     1     1     2    1
     2     1    50    1
     3     1    51    1
     4     1    52    1
     5     2    49   ar
     6     2     3   ar
     7     3     4   ar
     8     3    53    1
     9     4     5    1
    10     4    48   ar
    11     5     6    2
    12     5     7   am
    13     7     8    1
    14     7    54    1
    15     8     9    1
    16     8    10    1
    17     8    55    1
    18     9    56    1
    19     9    57    1
    20     9    58    1
    21    10    11    2
    22    10    12   am
    23    12    13    1
    24    12    59    1
    25    13    14    1
    26    13    45    1
    27    13    60    1
    28    14    15    2
    29    14    16   am
    30    16    17    1
    31    16    61    1
    32    17    18    1
    33    17    22    1
    34    17    62    1
    35    18    19    1
    36    18    63    1
    37    18    64    1
    38    19    20    1
    39    19    21    1
    40    19    65    1
    41    20    66    1
    42    20    67    1
    43    20    68    1
    44    21    69    1
    45    21    70    1
    46    21    71    1
    47    22    23    2
    48    22    24   am
    49    24    25    1
    50    24    72    1
    51    25    26    1
    52    25    38    1
    53    25    73    1
    54    26    27    2
    55    26    74    1
    56    27    28    1
    57    27    75    1
    58    28    29    2
    59    28    30    1
    60    30    31    1
    61    31    32    1
    62    31    76    1
    63    31    77    1
    64    32    37   ar
    65    32    33   ar
    66    33    34   ar
    67    33    78    1
    68    34    35   ar
    69    34    79    1
    70    35    36   ar
    71    35    80    1
    72    36    37   ar
    73    36    81    1
    74    37    82    1
    75    38    39    1
    76    38    83    1
    77    38    84    1
    78    39    43    1
    79    39    40    1
    80    39    85    1
    81    40    41    1
    82    40    86    1
    83    40    87    1
    84    41    42    1
    85    41    88    1
    86    41    89    1
    87    42    43   am
    88    42    90    1
    89    43    44    2
    90    45    46    1
    91    45    47    1
    92    45    91    1
    93    46    92    1
    94    46    93    1
    95    46    94    1
    96    47    95    1
    97    47    96    1
    98    47    97    1
    99    48    49   ar
