@<TRIPOS>MOLECULE
/home/lixiaoshuang.lxs/med/data/m_pro/PDB_BA/3sn8/3sn8_ligand.pdb
 32 34 0 0 0
SMALL
GASTEIGER

@<TRIPOS>ATOM
      1  CAZ       16.7550    1.1700   23.0170 C.2   307  S89307      0.2421
      2  OAB       15.6770    1.1720   22.4280 O.2   307  S89307     -0.2733
      3  CAE       17.1540    2.2940   23.9610 C.3   307  S89307      0.0915
      4  CAF       17.1340    3.6520   23.2900 C.3   307  S89307      0.0360
      5  CBB       17.0380    4.8060   24.2620 C.ar  307  S89307     -0.0217
      6  CAP       16.7600    4.6000   25.6120 C.ar  307  S89307     -0.0043
      7  CAJ       16.6880    5.7020   26.4640 C.ar  307  S89307     -0.0003
      8  CAG       16.8720    7.0020   25.9860 C.ar  307  S89307     -0.0000
      9  CAK       17.1480    7.2030   24.6380 C.ar  307  S89307     -0.0003
     10  CAQ       17.2260    6.1080   23.7740 C.ar  307  S89307     -0.0043
     11  NAY       17.6450    0.1720   22.8700 N.am  307  S89307     -0.1974
     12  CBF       17.3100   -0.9730   22.0310 C.3   307  S89307      0.1770
     13  CBA       16.7340   -1.9350   23.0280 C.2   307  S89307      0.2619
     14  OAC       17.4100   -2.8660   23.4690 O.2   307  S89307     -0.2715
     15  CAW       18.6110   -1.5010   21.4550 C.3   307  S89307      0.0574
     16  CBD       18.8590   -0.7340   20.1920 C.ar  307  S89307     -0.0200
     17  CAU       18.1810   -1.0860   19.0220 C.ar  307  S89307     -0.0042
     18  CAT       19.7680    0.3370   20.2060 C.ar  307  S89307     -0.0042
     19  CAO       18.4090   -0.3670   17.8560 C.ar  307  S89307     -0.0003
     20  CAN       20.0150    1.0550   19.0410 C.ar  307  S89307     -0.0003
     21  CAI       19.3310    0.6910   17.8720 C.ar  307  S89307     -0.0000
     22  N         15.4800   -1.6410   23.4110 N.am  307  S89307     -0.1974
     23  CA        14.7190   -2.3680   24.4270 C.3   307  S89307      0.1639
     24  C         14.4120   -3.8170   24.0690 C.2   307  S89307      0.2290
     25  O         13.9420   -4.5450   24.9570 O.2   307  S89307     -0.2864
     26  CB        13.4170   -1.5400   24.5430 C.3   307  S89307      0.0560
     27  CG        13.4260   -0.1830   25.2440 C.ar  307  S89307     -0.0200
     28  CD1       12.2190    0.5500   25.2440 C.ar  307  S89307     -0.0042
     29  CD2       14.5490    0.3330   25.9000 C.ar  307  S89307     -0.0042
     30  CE1       12.1390    1.7800   25.9010 C.ar  307  S89307     -0.0003
     31  CE2       14.4830    1.5800   26.5440 C.ar  307  S89307     -0.0003
     32  CZ        13.2720    2.2940   26.5430 C.ar  307  S89307     -0.0000
@<TRIPOS>BOND
     1    19    21   ar
     2    19    17   ar
     3    21    20   ar
     4    17    16   ar
     5    20    18   ar
     6    16    18   ar
     7    16    15    1
     8    15    12    1
     9    12    11    1
    10    12    13    1
    11     2     1    2
    12    11     1   am
    13     1     3    1
    14    13    22   am
    15    13    14    2
    16     4     3    1
    17     4     5    1
    18    22    23    1
    19    10     5   ar
    20    10     9   ar
    21    24    23    1
    22    24    25    2
    23     5     6   ar
    24    23    26    1
    25    26    27    1
    26     9     8   ar
    27    27    28   ar
    28    27    29   ar
    29    28    30   ar
    30     6     7   ar
    31    29    31   ar
    32    30    32   ar
    33     8     7   ar
    34    32    31   ar
