
                    3D
 Schrodinger Suite 2019-4.
 62 64  0  0  1  0            999 V2000
  -19.5235  -10.2786  -27.3874 C   0  0  0  0  0  0
  -19.6176   -9.2274  -28.5209 C   0  0  0  0  0  0
  -18.3522   -9.3359  -29.3960 C   0  0  0  0  0  0
  -20.8574   -9.5041  -29.4032 C   0  0  0  0  0  0
  -19.6400   -7.8681  -27.9751 N   0  0  0  0  0  0
  -20.5566   -7.3056  -27.1630 C   0  0  0  0  0  0
  -21.5716   -7.8796  -26.7792 O   0  0  0  0  0  0
  -20.2374   -5.8534  -26.7032 C   0  0  2  0  0  0
  -18.9222   -5.6922  -25.9449 C   0  0  0  0  0  0
  -18.1962   -6.7747  -25.4097 C   0  0  0  0  0  0
  -16.9330   -6.5754  -24.8590 C   0  0  0  0  0  0
  -16.4374   -5.2772  -24.8084 C   0  0  0  0  0  0
  -17.1271   -4.2081  -25.2703 N   0  0  0  0  0  0
  -18.3442   -4.4249  -25.8284 C   0  0  0  0  0  0
  -21.4079   -5.0075  -26.2608 N   0  0  0  0  0  0
  -21.6897   -4.7237  -24.9412 C   0  0  0  0  0  0
  -20.9281   -5.0079  -24.0215 O   0  0  0  0  0  0
  -22.8895   -3.9977  -24.5500 C   0  0  0  0  0  0
  -24.1627   -3.8085  -25.0734 C   0  0  0  0  0  0
  -24.9275   -3.1214  -24.2415 N   0  0  0  0  0  0
  -24.1581   -2.9067  -23.2061 C   0  0  0  0  0  0
  -22.9138   -3.4299  -23.3139 O   0  0  0  0  0  0
  -22.2731   -4.6014  -27.2989 C   0  0  0  0  0  0
  -23.2263   -5.4742  -27.8304 C   0  0  0  0  0  0
  -23.9629   -5.0999  -28.9465 C   0  0  0  0  0  0
  -23.7753   -3.8430  -29.5427 C   0  0  0  0  0  0
  -24.5283   -3.4304  -30.8320 C   0  0  0  0  0  0
  -25.5156   -2.2913  -30.5032 C   0  0  0  0  0  0
  -25.3231   -4.6041  -31.4573 C   0  0  0  0  0  0
  -23.5278   -2.9387  -31.9085 C   0  0  0  0  0  0
  -22.8778   -2.9470  -28.9456 C   0  0  0  0  0  0
  -22.1287   -3.3217  -27.8347 C   0  0  0  0  0  0
  -20.3952  -10.2500  -26.7335 H   0  0  0  0  0  0
  -19.4486  -11.2907  -27.7880 H   0  0  0  0  0  0
  -18.6485  -10.1070  -26.7589 H   0  0  0  0  0  0
  -18.3658   -8.6170  -30.2157 H   0  0  0  0  0  0
  -17.4425   -9.1525  -28.8194 H   0  0  0  0  0  0
  -18.2537  -10.3276  -29.8416 H   0  0  0  0  0  0
  -20.9508   -8.7658  -30.2007 H   0  0  0  0  0  0
  -20.8014  -10.4868  -29.8714 H   0  0  0  0  0  0
  -21.7837   -9.4761  -28.8268 H   0  0  0  0  0  0
  -18.8303   -7.3124  -28.2063 H   0  0  0  0  0  0
  -20.0260   -5.4293  -27.6878 H   0  0  0  0  0  0
  -18.5799   -7.7835  -25.4347 H   0  0  0  0  0  0
  -16.3498   -7.4039  -24.4859 H   0  0  0  0  0  0
  -15.4560   -5.0832  -24.4081 H   0  0  0  0  0  0
  -18.8555   -3.5536  -26.2151 H   0  0  0  0  0  0
  -24.5515   -4.1598  -26.0154 H   0  0  0  0  0  0
  -24.3968   -2.4307  -22.2673 H   0  0  0  0  0  0
  -23.3919   -6.4511  -27.4033 H   0  0  0  0  0  0
  -24.6625   -5.8203  -29.3379 H   0  0  0  0  0  0
  -26.0780   -1.9732  -31.3838 H   0  0  0  0  0  0
  -26.2370   -2.6086  -29.7495 H   0  0  0  0  0  0
  -24.9943   -1.4097  -30.1235 H   0  0  0  0  0  0
  -25.7724   -4.3361  -32.4160 H   0  0  0  0  0  0
  -24.6814   -5.4685  -31.6174 H   0  0  0  0  0  0
  -26.1296   -4.9296  -30.8051 H   0  0  0  0  0  0
  -24.0512   -2.6155  -32.8068 H   0  0  0  0  0  0
  -22.9379   -2.0830  -31.5802 H   0  0  0  0  0  0
  -22.8339   -3.7287  -32.1984 H   0  0  0  0  0  0
  -22.7344   -1.9535  -29.3467 H   0  0  0  0  0  0
  -21.4205   -2.6193  -27.4156 H   0  0  0  0  0  0
  1  2  1  0  0  0
  1 33  1  0  0  0
  1 34  1  0  0  0
  1 35  1  0  0  0
  2  3  1  0  0  0
  2  4  1  0  0  0
  2  5  1  0  0  0
  3 36  1  0  0  0
  3 37  1  0  0  0
  3 38  1  0  0  0
  4 39  1  0  0  0
  4 40  1  0  0  0
  4 41  1  0  0  0
  5  6  1  0  0  0
  5 42  1  0  0  0
  6  7  2  0  0  0
  6  8  1  0  0  0
  8  9  1  0  0  0
  8 15  1  0  0  0
  8 43  1  0  0  0
  9 14  1  0  0  0
  9 10  2  0  0  0
 10 11  1  0  0  0
 10 44  1  0  0  0
 11 12  2  0  0  0
 11 45  1  0  0  0
 12 13  1  0  0  0
 12 46  1  0  0  0
 13 14  2  0  0  0
 14 47  1  0  0  0
 15 16  1  0  0  0
 15 23  1  0  0  0
 16 17  2  0  0  0
 16 18  1  0  0  0
 18 22  1  0  0  0
 18 19  2  0  0  0
 19 20  1  0  0  0
 19 48  1  0  0  0
 20 21  2  0  0  0
 21 22  1  0  0  0
 21 49  1  0  0  0
 23 32  1  0  0  0
 23 24  2  0  0  0
 24 25  1  0  0  0
 24 50  1  0  0  0
 25 26  2  0  0  0
 25 51  1  0  0  0
 26 27  1  0  0  0
 26 31  1  0  0  0
 27 28  1  0  0  0
 27 29  1  0  0  0
 27 30  1  0  0  0
 28 52  1  0  0  0
 28 53  1  0  0  0
 28 54  1  0  0  0
 29 55  1  0  0  0
 29 56  1  0  0  0
 29 57  1  0  0  0
 30 58  1  0  0  0
 30 59  1  0  0  0
 30 60  1  0  0  0
 31 32  2  0  0  0
 31 61  1  0  0  0
 32 62  1  0  0  0
M  END
$$$$
