@<TRIPOS>MOLECULE
*****
 62 64 0 0 0
SMALL
GASTEIGER
****
Schrodinger Suite 2019-4.
@<TRIPOS>ATOM
      1 C         -19.5235  -10.2786  -27.3874 C.3     1  UNL1       -0.0442
      2 C         -19.6176   -9.2274  -28.5209 C.3     1  UNL1        0.0262
      3 C         -18.3522   -9.3359  -29.3960 C.3     1  UNL1       -0.0442
      4 C         -20.8574   -9.5041  -29.4032 C.3     1  UNL1       -0.0442
      5 N         -19.6400   -7.8681  -27.9751 N.am    1  UNL1       -0.3087
      6 C         -20.5566   -7.3056  -27.1630 C.2     1  UNL1        0.2389
      7 O         -21.5716   -7.8796  -26.7792 O.2     1  UNL1       -0.2734
      8 C         -20.2374   -5.8534  -26.7032 C.3     1  UNL1        0.1338
      9 C         -18.9222   -5.6922  -25.9449 C.ar    1  UNL1        0.0002
     10 C         -18.1962   -6.7747  -25.4097 C.ar    1  UNL1       -0.0534
     11 C         -16.9330   -6.5754  -24.8590 C.ar    1  UNL1       -0.0433
     12 C         -16.4374   -5.2772  -24.8084 C.ar    1  UNL1        0.0276
     13 N         -17.1271   -4.2081  -25.2703 N.ar    1  UNL1       -0.2629
     14 C         -18.3442   -4.4249  -25.8284 C.ar    1  UNL1        0.0330
     15 N         -21.4079   -5.0075  -26.2608 N.am    1  UNL1       -0.2488
     16 C         -21.6897   -4.7237  -24.9412 C.2     1  UNL1        0.2886
     17 O         -20.9281   -5.0079  -24.0215 O.2     1  UNL1       -0.2662
     18 C         -22.8895   -3.9977  -24.5500 C.ar    1  UNL1        0.2096
     19 C         -24.1627   -3.8085  -25.0734 C.ar    1  UNL1        0.0783
     20 N         -24.9275   -3.1214  -24.2415 N.ar    1  UNL1       -0.2238
     21 C         -24.1581   -2.9067  -23.2061 C.ar    1  UNL1        0.1828
     22 O         -22.9138   -3.4299  -23.3139 O.2     1  UNL1       -0.4378
     23 C         -22.2731   -4.6014  -27.2989 C.ar    1  UNL1        0.0379
     24 C         -23.2263   -5.4742  -27.8304 C.ar    1  UNL1       -0.0400
     25 C         -23.9629   -5.0999  -28.9465 C.ar    1  UNL1       -0.0563
     26 C         -23.7753   -3.8430  -29.5427 C.ar    1  UNL1       -0.0419
     27 C         -24.5283   -3.4304  -30.8320 C.3     1  UNL1       -0.0127
     28 C         -25.5156   -2.2913  -30.5032 C.3     1  UNL1       -0.0560
     29 C         -25.3231   -4.6041  -31.4573 C.3     1  UNL1       -0.0560
     30 C         -23.5278   -2.9387  -31.9085 C.3     1  UNL1       -0.0560
     31 C         -22.8778   -2.9470  -28.9456 C.ar    1  UNL1       -0.0563
     32 C         -22.1287   -3.3217  -27.8347 C.ar    1  UNL1       -0.0400
     33 H         -20.3952  -10.2500  -26.7335 H       1  UNL1        0.0250
     34 H         -19.4486  -11.2907  -27.7880 H       1  UNL1        0.0250
     35 H         -18.6485  -10.1070  -26.7589 H       1  UNL1        0.0250
     36 H         -18.3658   -8.6170  -30.2157 H       1  UNL1        0.0250
     37 H         -17.4425   -9.1525  -28.8194 H       1  UNL1        0.0250
     38 H         -18.2537  -10.3276  -29.8416 H       1  UNL1        0.0250
     39 H         -20.9508   -8.7658  -30.2007 H       1  UNL1        0.0250
     40 H         -20.8014  -10.4868  -29.8714 H       1  UNL1        0.0250
     41 H         -21.7837   -9.4761  -28.8268 H       1  UNL1        0.0250
     42 H         -18.8303   -7.3124  -28.2063 H       1  UNL1        0.1493
     43 H         -20.0260   -5.4293  -27.6878 H       1  UNL1        0.0652
     44 H         -18.5799   -7.7835  -25.4347 H       1  UNL1        0.0622
     45 H         -16.3498   -7.4039  -24.4859 H       1  UNL1        0.0633
     46 H         -15.4560   -5.0832  -24.4081 H       1  UNL1        0.0829
     47 H         -18.8555   -3.5536  -26.2151 H       1  UNL1        0.0833
     48 H         -24.5515   -4.1598  -26.0154 H       1  UNL1        0.0870
     49 H         -24.3968   -2.4307  -22.2673 H       1  UNL1        0.1255
     50 H         -23.3919   -6.4511  -27.4033 H       1  UNL1        0.0636
     51 H         -24.6625   -5.8203  -29.3379 H       1  UNL1        0.0621
     52 H         -26.0780   -1.9732  -31.3838 H       1  UNL1        0.0238
     53 H         -26.2370   -2.6086  -29.7495 H       1  UNL1        0.0238
     54 H         -24.9943   -1.4097  -30.1235 H       1  UNL1        0.0238
     55 H         -25.7724   -4.3361  -32.4160 H       1  UNL1        0.0238
     56 H         -24.6814   -5.4685  -31.6174 H       1  UNL1        0.0238
     57 H         -26.1296   -4.9296  -30.8051 H       1  UNL1        0.0238
     58 H         -24.0512   -2.6155  -32.8068 H       1  UNL1        0.0238
     59 H         -22.9379   -2.0830  -31.5802 H       1  UNL1        0.0238
     60 H         -22.8339   -3.7287  -32.1984 H       1  UNL1        0.0238
     61 H         -22.7344   -1.9535  -29.3467 H       1  UNL1        0.0621
     62 H         -21.4205   -2.6193  -27.4156 H       1  UNL1        0.0636
@<TRIPOS>BOND
     1     1     2    1
     2     1    33    1
     3     1    34    1
     4     1    35    1
     5     2     3    1
     6     2     4    1
     7     2     5    1
     8     3    36    1
     9     3    37    1
    10     3    38    1
    11     4    39    1
    12     4    40    1
    13     4    41    1
    14     5     6   am
    15     5    42    1
    16     6     7    2
    17     6     8    1
    18     8     9    1
    19     8    15    1
    20     8    43    1
    21     9    14   ar
    22     9    10   ar
    23    10    11   ar
    24    10    44    1
    25    11    12   ar
    26    11    45    1
    27    12    13   ar
    28    12    46    1
    29    13    14   ar
    30    14    47    1
    31    15    16   am
    32    15    23    1
    33    16    17    2
    34    16    18    1
    35    18    22   ar
    36    18    19   ar
    37    19    20   ar
    38    19    48    1
    39    20    21   ar
    40    21    22   ar
    41    21    49    1
    42    23    32   ar
    43    23    24   ar
    44    24    25   ar
    45    24    50    1
    46    25    26   ar
    47    25    51    1
    48    26    27    1
    49    26    31   ar
    50    27    28    1
    51    27    29    1
    52    27    30    1
    53    28    52    1
    54    28    53    1
    55    28    54    1
    56    29    55    1
    57    29    56    1
    58    29    57    1
    59    30    58    1
    60    30    59    1
    61    30    60    1
    62    31    32   ar
    63    31    61    1
    64    32    62    1
