@<TRIPOS>MOLECULE
*****
 96 97 0 0 0
SMALL
GASTEIGER
****
Schrodinger Suite 2019-4.
@<TRIPOS>ATOM
      1 C         -25.7899   -3.2046  -21.8275 C.3     1  UNL1       -0.0306
      2 C         -24.5578   -3.7762  -21.1250 C.3     1  UNL1        0.0900
      3 O         -23.5063   -3.9811  -22.0618 O.3     1  UNL1       -0.4618
      4 C         -22.4897   -3.0890  -22.1824 C.2     1  UNL1        0.3317
      5 O         -22.3901   -2.0593  -21.5146 O.2     1  UNL1       -0.2456
      6 C         -21.4167   -3.5186  -23.0696 C.2     1  UNL1        0.0203
      7 C         -21.5799   -4.4418  -24.0348 C.2     1  UNL1       -0.0572
      8 C         -20.5098   -4.9865  -24.9640 C.3     1  UNL1        0.0427
      9 C         -19.0377   -4.8009  -24.5669 C.3     1  UNL1       -0.0197
     10 C         -18.1000   -5.7810  -25.3295 C.3     1  UNL1        0.0389
     11 C         -18.2056   -7.2377  -24.8845 C.3     1  UNL1       -0.0262
     12 C         -16.7799   -7.7465  -24.9053 C.3     1  UNL1        0.0123
     13 N         -16.0112   -6.5259  -24.7314 N.am    1  UNL1       -0.3151
     14 C         -16.6370   -5.3998  -25.1044 C.2     1  UNL1        0.2162
     15 O         -16.1472   -4.2890  -25.2918 O.2     1  UNL1       -0.2755
     16 N         -20.7062   -4.4727  -26.3083 N.am    1  UNL1       -0.3075
     17 C         -21.3455   -5.1547  -27.2546 C.2     1  UNL1        0.2341
     18 O         -21.7906   -6.2890  -27.1025 O.2     1  UNL1       -0.2738
     19 C         -21.5827   -4.4220  -28.5686 C.3     1  UNL1        0.1034
     20 C         -23.0158   -3.8631  -28.4969 C.3     1  UNL1       -0.0007
     21 C         -23.6118   -3.2161  -29.7242 C.ar    1  UNL1       -0.0451
     22 C         -24.9899   -2.9292  -29.7022 C.ar    1  UNL1       -0.0585
     23 C         -25.5774   -2.2889  -30.7762 C.ar    1  UNL1       -0.0615
     24 C         -24.8188   -1.9501  -31.8783 C.ar    1  UNL1       -0.0617
     25 C         -23.4498   -2.1836  -31.9047 C.ar    1  UNL1       -0.0615
     26 C         -22.8302   -2.7865  -30.8204 C.ar    1  UNL1       -0.0585
     27 N         -21.4210   -5.3703  -29.6711 N.am    1  UNL1       -0.3022
     28 C         -20.2298   -5.8451  -30.0774 C.2     1  UNL1        0.2342
     29 O         -19.1431   -5.4652  -29.6363 O.2     1  UNL1       -0.2738
     30 C         -20.2754   -6.9099  -31.1783 C.3     1  UNL1        0.1017
     31 N         -19.3900   -6.5119  -32.2587 N.am    1  UNL1       -0.3022
     32 C         -19.6013   -6.8529  -33.5344 C.2     1  UNL1        0.2363
     33 O         -20.5898   -7.4894  -33.9049 O.2     1  UNL1       -0.2737
     34 CA        -18.5457   -6.3738  -34.5650 C.3     1  UNL1        0.1253
     35 C         -18.9298   -4.9908  -35.1449 C.3     1  UNL1        0.0712
     36 O         -20.1900   -4.9736  -35.8036 O.3     1  UNL1       -0.3927
     37 N         -18.3241   -7.2983  -35.6907 N.am    1  UNL1       -0.2676
     38 C         -17.8701   -8.5949  -35.5105 C.2     1  UNL1        0.4014
     39 O         -17.4728   -9.0990  -34.4600 O.2     1  UNL1       -0.2264
     40 O         -17.9762   -9.2217  -36.7050 O.3     1  UNL1       -0.4447
     41 C         -17.9695  -10.6422  -36.9035 C.3     1  UNL1        0.1068
     42 C         -19.1078  -11.3232  -36.1058 C.3     1  UNL1       -0.0253
     43 C         -16.5994  -11.2632  -36.5539 C.3     1  UNL1       -0.0253
     44 C         -18.2396  -10.7996  -38.4127 C.3     1  UNL1       -0.0253
     45 C         -19.8985   -8.3252  -30.6449 C.3     1  UNL1       -0.0197
     46 C         -20.8981   -8.8470  -29.6031 C.3     1  UNL1       -0.0605
     47 C         -18.4551   -8.4454  -30.1092 C.3     1  UNL1       -0.0605
     48 H         -26.5721   -2.9740  -21.1053 H       1  UNL1        0.0262
     49 H         -25.5557   -2.2898  -22.3700 H       1  UNL1        0.0262
     50 H         -26.1875   -3.9335  -22.5351 H       1  UNL1        0.0262
     51 H         -24.8110   -4.7371  -20.6758 H       1  UNL1        0.0695
     52 H         -24.2443   -3.1270  -20.3051 H       1  UNL1        0.0695
     53 H         -20.4537   -3.0573  -22.9145 H       1  UNL1        0.0686
     54 H         -22.5593   -4.8701  -24.2082 H       1  UNL1        0.0593
     55 H         -20.6758   -6.0674  -24.9156 H       1  UNL1        0.0543
     56 H         -18.9323   -4.9765  -23.5041 H       1  UNL1        0.0293
     57 H         -18.7466   -3.7592  -24.7288 H       1  UNL1        0.0293
     58 H         -18.2622   -5.7092  -26.4057 H       1  UNL1        0.0395
     59 H         -18.8690   -7.8421  -25.5054 H       1  UNL1        0.0288
     60 H         -18.5897   -7.3005  -23.8666 H       1  UNL1        0.0288
     61 H         -16.5126   -8.2282  -25.8498 H       1  UNL1        0.0462
     62 H         -16.5831   -8.4545  -24.0983 H       1  UNL1        0.0462
     63 H         -15.0097   -6.5555  -24.5809 H       1  UNL1        0.1487
     64 H         -20.4012   -3.5282  -26.4958 H       1  UNL1        0.1493
     65 H         -20.8686   -3.6038  -28.6818 H       1  UNL1        0.0598
     66 H         -23.0480   -3.1062  -27.7097 H       1  UNL1        0.0336
     67 H         -23.7060   -4.6483  -28.1799 H       1  UNL1        0.0336
     68 H         -25.5942   -3.2050  -28.8496 H       1  UNL1        0.0620
     69 H         -26.6273   -2.0528  -30.7609 H       1  UNL1        0.0618
     70 H         -25.3210   -1.4881  -32.7048 H       1  UNL1        0.0618
     71 H         -22.8654   -1.8894  -32.7634 H       1  UNL1        0.0618
     72 H         -21.7616   -2.9386  -30.8416 H       1  UNL1        0.0620
     73 H         -22.2722   -5.7309  -30.0744 H       1  UNL1        0.1495
     74 H         -21.3003   -6.9468  -31.5553 H       1  UNL1        0.0597
     75 H         -18.5311   -6.0460  -31.9809 H       1  UNL1        0.1495
     76 HA        -17.5868   -6.2757  -34.0479 H       1  UNL1        0.0619
     77 H1        -18.1571   -4.6329  -35.8269 H       1  UNL1        0.0580
     78 H2        -18.9668   -4.2664  -34.3339 H       1  UNL1        0.0580
     79 H         -20.1503   -5.4889  -36.6145 H       1  UNL1        0.2095
     80 H         -18.6635   -7.0353  -36.6017 H       1  UNL1        0.1529
     81 H         -19.1908  -12.3820  -36.3535 H       1  UNL1        0.0268
     82 H         -18.9492  -11.2537  -35.0303 H       1  UNL1        0.0268
     83 H         -20.0719  -10.8586  -36.3179 H       1  UNL1        0.0268
     84 H         -16.5578  -12.3138  -36.8407 H       1  UNL1        0.0268
     85 H         -15.7897  -10.7497  -37.0756 H       1  UNL1        0.0268
     86 H         -16.3937  -11.2135  -35.4854 H       1  UNL1        0.0268
     87 H         -18.2668  -11.8478  -38.7088 H       1  UNL1        0.0268
     88 H         -19.1942  -10.3507  -38.6948 H       1  UNL1        0.0268
     89 H         -17.4675  -10.3075  -39.0077 H       1  UNL1        0.0268
     90 H         -19.9653   -9.0045  -31.4972 H       1  UNL1        0.0318
     91 H         -20.6704   -9.8716  -29.3116 H       1  UNL1        0.0233
     92 H         -20.8758   -8.2363  -28.7052 H       1  UNL1        0.0233
     93 H         -21.9174   -8.8347  -29.9892 H       1  UNL1        0.0233
     94 H         -18.2079   -9.4867  -29.9050 H       1  UNL1        0.0233
     95 H         -17.7240   -8.0840  -30.8319 H       1  UNL1        0.0233
     96 H         -18.3093   -7.8883  -29.1827 H       1  UNL1        0.0233
@<TRIPOS>BOND
     1     1     2    1
     2     1    48    1
     3     1    49    1
     4     1    50    1
     5     2     3    1
     6     2    51    1
     7     2    52    1
     8     3     4    1
     9     4     5    2
    10     4     6    1
    11     6     7    2
    12     6    53    1
    13     7     8    1
    14     7    54    1
    15     8     9    1
    16     8    16    1
    17     8    55    1
    18     9    10    1
    19     9    56    1
    20     9    57    1
    21    10    14    1
    22    10    11    1
    23    10    58    1
    24    11    12    1
    25    11    59    1
    26    11    60    1
    27    12    13    1
    28    12    61    1
    29    12    62    1
    30    13    14   am
    31    13    63    1
    32    14    15    2
    33    16    17   am
    34    16    64    1
    35    17    18    2
    36    17    19    1
    37    19    20    1
    38    19    27    1
    39    19    65    1
    40    20    21    1
    41    20    66    1
    42    20    67    1
    43    21    26   ar
    44    21    22   ar
    45    22    23   ar
    46    22    68    1
    47    23    24   ar
    48    23    69    1
    49    24    25   ar
    50    24    70    1
    51    25    26   ar
    52    25    71    1
    53    26    72    1
    54    27    28   am
    55    27    73    1
    56    28    29    2
    57    28    30    1
    58    30    31    1
    59    30    45    1
    60    30    74    1
    61    31    32   am
    62    31    75    1
    63    32    33    2
    64    32    34    1
    65    34    35    1
    66    34    37    1
    67    34    76    1
    68    35    36    1
    69    35    77    1
    70    35    78    1
    71    36    79    1
    72    37    38   am
    73    37    80    1
    74    38    39    2
    75    38    40    1
    76    40    41    1
    77    41    42    1
    78    41    43    1
    79    41    44    1
    80    42    81    1
    81    42    82    1
    82    42    83    1
    83    43    84    1
    84    43    85    1
    85    43    86    1
    86    44    87    1
    87    44    88    1
    88    44    89    1
    89    45    46    1
    90    45    47    1
    91    45    90    1
    92    46    91    1
    93    46    92    1
    94    46    93    1
    95    47    94    1
    96    47    95    1
    97    47    96    1
