
                    3D
 Schrodinger Suite 2019-4.
 96 97  0  0  1  0            999 V2000
  -25.7899   -3.2046  -21.8275 C   0  0  0  0  0  0
  -24.5578   -3.7762  -21.1250 C   0  0  0  0  0  0
  -23.5063   -3.9811  -22.0618 O   0  0  0  0  0  0
  -22.4897   -3.0890  -22.1824 C   0  0  0  0  0  0
  -22.3901   -2.0593  -21.5146 O   0  0  0  0  0  0
  -21.4167   -3.5186  -23.0696 C   0  0  0  0  0  0
  -21.5799   -4.4418  -24.0348 C   0  0  0  0  0  0
  -20.5098   -4.9865  -24.9640 C   0  0  2  0  0  0
  -19.0377   -4.8009  -24.5669 C   0  0  0  0  0  0
  -18.1000   -5.7810  -25.3295 C   0  0  2  0  0  0
  -18.2056   -7.2377  -24.8845 C   0  0  0  0  0  0
  -16.7799   -7.7465  -24.9053 C   0  0  0  0  0  0
  -16.0112   -6.5259  -24.7314 N   0  0  0  0  0  0
  -16.6370   -5.3998  -25.1044 C   0  0  0  0  0  0
  -16.1472   -4.2890  -25.2918 O   0  0  0  0  0  0
  -20.7062   -4.4727  -26.3083 N   0  0  0  0  0  0
  -21.3455   -5.1547  -27.2546 C   0  0  0  0  0  0
  -21.7906   -6.2890  -27.1025 O   0  0  0  0  0  0
  -21.5827   -4.4220  -28.5686 C   0  0  2  0  0  0
  -23.0158   -3.8631  -28.4969 C   0  0  0  0  0  0
  -23.6118   -3.2161  -29.7242 C   0  0  0  0  0  0
  -24.9899   -2.9292  -29.7022 C   0  0  0  0  0  0
  -25.5774   -2.2889  -30.7762 C   0  0  0  0  0  0
  -24.8188   -1.9501  -31.8783 C   0  0  0  0  0  0
  -23.4498   -2.1836  -31.9047 C   0  0  0  0  0  0
  -22.8302   -2.7865  -30.8204 C   0  0  0  0  0  0
  -21.4210   -5.3703  -29.6711 N   0  0  0  0  0  0
  -20.2298   -5.8451  -30.0774 C   0  0  0  0  0  0
  -19.1431   -5.4652  -29.6363 O   0  0  0  0  0  0
  -20.2754   -6.9099  -31.1783 C   0  0  1  0  0  0
  -19.3900   -6.5119  -32.2587 N   0  0  0  0  0  0
  -19.6013   -6.8529  -33.5344 C   0  0  0  0  0  0
  -20.5898   -7.4894  -33.9049 O   0  0  0  0  0  0
  -18.5457   -6.3738  -34.5650 C   0  0  2  0  0  0
  -18.9298   -4.9908  -35.1449 C   0  0  0  0  0  0
  -20.1900   -4.9736  -35.8036 O   0  0  0  0  0  0
  -18.3241   -7.2983  -35.6907 N   0  0  0  0  0  0
  -17.8701   -8.5949  -35.5105 C   0  0  0  0  0  0
  -17.4728   -9.0990  -34.4600 O   0  0  0  0  0  0
  -17.9762   -9.2217  -36.7050 O   0  0  0  0  0  0
  -17.9695  -10.6422  -36.9035 C   0  0  0  0  0  0
  -19.1078  -11.3232  -36.1058 C   0  0  0  0  0  0
  -16.5994  -11.2632  -36.5539 C   0  0  0  0  0  0
  -18.2396  -10.7996  -38.4127 C   0  0  0  0  0  0
  -19.8985   -8.3252  -30.6449 C   0  0  0  0  0  0
  -20.8981   -8.8470  -29.6031 C   0  0  0  0  0  0
  -18.4551   -8.4454  -30.1092 C   0  0  0  0  0  0
  -26.5721   -2.9740  -21.1053 H   0  0  0  0  0  0
  -25.5557   -2.2898  -22.3700 H   0  0  0  0  0  0
  -26.1875   -3.9335  -22.5351 H   0  0  0  0  0  0
  -24.8110   -4.7371  -20.6758 H   0  0  0  0  0  0
  -24.2443   -3.1270  -20.3051 H   0  0  0  0  0  0
  -20.4537   -3.0573  -22.9145 H   0  0  0  0  0  0
  -22.5593   -4.8701  -24.2082 H   0  0  0  0  0  0
  -20.6758   -6.0674  -24.9156 H   0  0  0  0  0  0
  -18.9323   -4.9765  -23.5041 H   0  0  0  0  0  0
  -18.7466   -3.7592  -24.7288 H   0  0  0  0  0  0
  -18.2622   -5.7092  -26.4057 H   0  0  0  0  0  0
  -18.8690   -7.8421  -25.5054 H   0  0  0  0  0  0
  -18.5897   -7.3005  -23.8666 H   0  0  0  0  0  0
  -16.5126   -8.2282  -25.8498 H   0  0  0  0  0  0
  -16.5831   -8.4545  -24.0983 H   0  0  0  0  0  0
  -15.0097   -6.5555  -24.5809 H   0  0  0  0  0  0
  -20.4012   -3.5282  -26.4958 H   0  0  0  0  0  0
  -20.8686   -3.6038  -28.6818 H   0  0  0  0  0  0
  -23.0480   -3.1062  -27.7097 H   0  0  0  0  0  0
  -23.7060   -4.6483  -28.1799 H   0  0  0  0  0  0
  -25.5942   -3.2050  -28.8496 H   0  0  0  0  0  0
  -26.6273   -2.0528  -30.7609 H   0  0  0  0  0  0
  -25.3210   -1.4881  -32.7048 H   0  0  0  0  0  0
  -22.8654   -1.8894  -32.7634 H   0  0  0  0  0  0
  -21.7616   -2.9386  -30.8416 H   0  0  0  0  0  0
  -22.2722   -5.7309  -30.0744 H   0  0  0  0  0  0
  -21.3003   -6.9468  -31.5553 H   0  0  0  0  0  0
  -18.5311   -6.0460  -31.9809 H   0  0  0  0  0  0
  -17.5868   -6.2757  -34.0479 H   0  0  0  0  0  0
  -18.1571   -4.6329  -35.8269 H   0  0  0  0  0  0
  -18.9668   -4.2664  -34.3339 H   0  0  0  0  0  0
  -20.1503   -5.4889  -36.6145 H   0  0  0  0  0  0
  -18.6635   -7.0353  -36.6017 H   0  0  0  0  0  0
  -19.1908  -12.3820  -36.3535 H   0  0  0  0  0  0
  -18.9492  -11.2537  -35.0303 H   0  0  0  0  0  0
  -20.0719  -10.8586  -36.3179 H   0  0  0  0  0  0
  -16.5578  -12.3138  -36.8407 H   0  0  0  0  0  0
  -15.7897  -10.7497  -37.0756 H   0  0  0  0  0  0
  -16.3937  -11.2135  -35.4854 H   0  0  0  0  0  0
  -18.2668  -11.8478  -38.7088 H   0  0  0  0  0  0
  -19.1942  -10.3507  -38.6948 H   0  0  0  0  0  0
  -17.4675  -10.3075  -39.0077 H   0  0  0  0  0  0
  -19.9653   -9.0045  -31.4972 H   0  0  0  0  0  0
  -20.6704   -9.8716  -29.3116 H   0  0  0  0  0  0
  -20.8758   -8.2363  -28.7052 H   0  0  0  0  0  0
  -21.9174   -8.8347  -29.9892 H   0  0  0  0  0  0
  -18.2079   -9.4867  -29.9050 H   0  0  0  0  0  0
  -17.7240   -8.0840  -30.8319 H   0  0  0  0  0  0
  -18.3093   -7.8883  -29.1827 H   0  0  0  0  0  0
  1  2  1  0  0  0
  1 48  1  0  0  0
  1 49  1  0  0  0
  1 50  1  0  0  0
  2  3  1  0  0  0
  2 51  1  0  0  0
  2 52  1  0  0  0
  3  4  1  0  0  0
  4  5  2  0  0  0
  4  6  1  0  0  0
  6  7  2  0  0  0
  6 53  1  0  0  0
  7  8  1  0  0  0
  7 54  1  0  0  0
  8  9  1  0  0  0
  8 16  1  0  0  0
  8 55  1  0  0  0
  9 10  1  0  0  0
  9 56  1  0  0  0
  9 57  1  0  0  0
 10 14  1  0  0  0
 10 11  1  0  0  0
 10 58  1  0  0  0
 11 12  1  0  0  0
 11 59  1  0  0  0
 11 60  1  0  0  0
 12 13  1  0  0  0
 12 61  1  0  0  0
 12 62  1  0  0  0
 13 14  1  0  0  0
 13 63  1  0  0  0
 14 15  2  0  0  0
 16 17  1  0  0  0
 16 64  1  0  0  0
 17 18  2  0  0  0
 17 19  1  0  0  0
 19 20  1  0  0  0
 19 27  1  0  0  0
 19 65  1  0  0  0
 20 21  1  0  0  0
 20 66  1  0  0  0
 20 67  1  0  0  0
 21 26  1  0  0  0
 21 22  2  0  0  0
 22 23  1  0  0  0
 22 68  1  0  0  0
 23 24  2  0  0  0
 23 69  1  0  0  0
 24 25  1  0  0  0
 24 70  1  0  0  0
 25 26  2  0  0  0
 25 71  1  0  0  0
 26 72  1  0  0  0
 27 28  1  0  0  0
 27 73  1  0  0  0
 28 29  2  0  0  0
 28 30  1  0  0  0
 30 31  1  0  0  0
 30 45  1  0  0  0
 30 74  1  0  0  0
 31 32  1  0  0  0
 31 75  1  0  0  0
 32 33  2  0  0  0
 32 34  1  0  0  0
 34 35  1  0  0  0
 34 37  1  0  0  0
 34 76  1  0  0  0
 35 36  1  0  0  0
 35 77  1  0  0  0
 35 78  1  0  0  0
 36 79  1  0  0  0
 37 38  1  0  0  0
 37 80  1  0  0  0
 38 39  2  0  0  0
 38 40  1  0  0  0
 40 41  1  0  0  0
 41 42  1  0  0  0
 41 43  1  0  0  0
 41 44  1  0  0  0
 42 81  1  0  0  0
 42 82  1  0  0  0
 42 83  1  0  0  0
 43 84  1  0  0  0
 43 85  1  0  0  0
 43 86  1  0  0  0
 44 87  1  0  0  0
 44 88  1  0  0  0
 44 89  1  0  0  0
 45 46  1  0  0  0
 45 47  1  0  0  0
 45 90  1  0  0  0
 46 91  1  0  0  0
 46 92  1  0  0  0
 46 93  1  0  0  0
 47 94  1  0  0  0
 47 95  1  0  0  0
 47 96  1  0  0  0
M  END
$$$$
