
                    3D
 Schrodinger Suite 2019-4.
 67 70  0  0  1  0            999 V2000
  -24.1309   -4.8277  -28.6172 C   0  0  0  0  0  0
  -23.0430   -3.7639  -28.8582 C   0  0  0  0  0  0
  -23.2721   -3.0492  -30.2004 C   0  0  0  0  0  0
  -21.5881   -4.2885  -28.7359 C   0  0  2  0  0  0
  -21.3273   -5.3590  -29.7038 N   0  0  0  0  0  0
  -20.0615   -5.8770  -29.9217 C   0  0  0  0  0  0
  -19.0051   -5.3762  -29.5427 O   0  0  0  0  0  0
  -20.1669   -7.0814  -30.4982 O   0  0  0  0  0  0
  -19.0125   -7.9110  -30.6110 C   0  0  0  0  0  0
  -18.5676   -8.5959  -29.3192 C   0  0  0  0  0  0
  -17.3457   -9.3005  -29.3034 C   0  0  0  0  0  0
  -16.9569  -10.0303  -28.1627 C   0  0  0  0  0  0
  -17.7946  -10.0752  -27.0330 C   0  0  0  0  0  0
  -18.9995   -9.3503  -27.0282 C   0  0  0  0  0  0
  -19.3723   -8.5965  -28.1577 C   0  0  0  0  0  0
  -21.2928   -4.8086  -27.3161 C   0  0  0  0  0  0
  -21.5454   -5.9826  -27.0322 O   0  0  0  0  0  0
  -20.7468   -3.9496  -26.4387 N   0  0  0  0  0  0
  -20.2894   -4.3405  -25.1004 C   0  0  1  0  0  0
  -18.7635   -4.1302  -24.9974 C   0  0  0  0  0  0
  -17.9865   -5.2953  -25.6299 C   0  0  2  0  0  0
  -18.2696   -6.6475  -24.9592 C   0  0  0  0  0  0
  -16.9257   -7.3749  -24.9000 C   0  0  0  0  0  0
  -15.9573   -6.3153  -25.0275 N   0  0  0  0  0  0
  -16.4836   -5.1740  -25.4540 C   0  0  0  0  0  0
  -15.8513   -4.1563  -25.7037 O   0  0  0  0  0  0
  -21.0645   -3.6286  -23.9872 C   0  0  0  0  0  0
  -20.5208   -2.9492  -23.1209 O   0  0  0  0  0  0
  -22.5277   -3.8541  -23.9267 C   0  0  0  0  0  0
  -23.1817   -4.7699  -24.6449 N   0  0  0  0  0  0
  -24.5081   -4.8183  -24.2633 C   0  0  0  0  0  0
  -25.4859   -5.7122  -24.7481 C   0  0  0  0  0  0
  -26.7965   -5.6888  -24.2438 C   0  0  0  0  0  0
  -27.1418   -4.7679  -23.2425 C   0  0  0  0  0  0
  -26.1917   -3.8558  -22.7478 C   0  0  0  0  0  0
  -24.8860   -3.8871  -23.2547 C   0  0  0  0  0  0
  -23.4988   -2.9189  -22.7863 S   0  0  0  0  0  0
  -24.0673   -5.2655  -27.6217 H   0  0  0  0  0  0
  -25.1173   -4.3781  -28.6995 H   0  0  0  0  0  0
  -24.0753   -5.6360  -29.3463 H   0  0  0  0  0  0
  -23.1718   -3.0031  -28.0857 H   0  0  0  0  0  0
  -22.5066   -2.2929  -30.3783 H   0  0  0  0  0  0
  -23.2535   -3.7477  -31.0375 H   0  0  0  0  0  0
  -24.2347   -2.5380  -30.2101 H   0  0  0  0  0  0
  -20.9013   -3.4707  -28.9513 H   0  0  0  0  0  0
  -22.1032   -5.9023  -30.0524 H   0  0  0  0  0  0
  -18.1820   -7.3477  -31.0301 H   0  0  0  0  0  0
  -19.2425   -8.6918  -31.3352 H   0  0  0  0  0  0
  -16.7072   -9.2947  -30.1748 H   0  0  0  0  0  0
  -16.0174  -10.5630  -28.1593 H   0  0  0  0  0  0
  -17.5003  -10.6437  -26.1634 H   0  0  0  0  0  0
  -19.6384   -9.3736  -26.1576 H   0  0  0  0  0  0
  -20.3036   -8.0564  -28.1389 H   0  0  0  0  0  0
  -20.5845   -2.9962  -26.7322 H   0  0  0  0  0  0
  -20.4940   -5.3958  -24.9280 H   0  0  0  0  0  0
  -18.4483   -4.0539  -23.9558 H   0  0  0  0  0  0
  -18.4845   -3.1849  -25.4651 H   0  0  0  0  0  0
  -18.1905   -5.3580  -26.6999 H   0  0  0  0  0  0
  -19.0338   -7.2119  -25.4870 H   0  0  0  0  0  0
  -18.6363   -6.4978  -23.9454 H   0  0  0  0  0  0
  -16.7875   -8.0394  -25.7487 H   0  0  0  0  0  0
  -16.7965   -7.9475  -23.9822 H   0  0  0  0  0  0
  -14.9652   -6.4665  -24.8943 H   0  0  0  0  0  0
  -25.2164   -6.4348  -25.5042 H   0  0  0  0  0  0
  -27.5334   -6.3856  -24.6164 H   0  0  0  0  0  0
  -28.1424   -4.7831  -22.8528 H   0  0  0  0  0  0
  -26.4489   -3.1547  -21.9687 H   0  0  0  0  0  0
  1  2  1  0  0  0
  1 38  1  0  0  0
  1 39  1  0  0  0
  1 40  1  0  0  0
  2  3  1  0  0  0
  2  4  1  0  0  0
  2 41  1  0  0  0
  3 42  1  0  0  0
  3 43  1  0  0  0
  3 44  1  0  0  0
  4  5  1  0  0  0
  4 16  1  0  0  0
  4 45  1  0  0  0
  5  6  1  0  0  0
  5 46  1  0  0  0
  6  7  2  0  0  0
  6  8  1  0  0  0
  8  9  1  0  0  0
  9 10  1  0  0  0
  9 47  1  0  0  0
  9 48  1  0  0  0
 10 15  1  0  0  0
 10 11  2  0  0  0
 11 12  1  0  0  0
 11 49  1  0  0  0
 12 13  2  0  0  0
 12 50  1  0  0  0
 13 14  1  0  0  0
 13 51  1  0  0  0
 14 15  2  0  0  0
 14 52  1  0  0  0
 15 53  1  0  0  0
 16 17  2  0  0  0
 16 18  1  0  0  0
 18 19  1  0  0  0
 18 54  1  0  0  0
 19 20  1  0  0  0
 19 27  1  0  0  0
 19 55  1  0  0  0
 20 21  1  0  0  0
 20 56  1  0  0  0
 20 57  1  0  0  0
 21 25  1  0  0  0
 21 22  1  0  0  0
 21 58  1  0  0  0
 22 23  1  0  0  0
 22 59  1  0  0  0
 22 60  1  0  0  0
 23 24  1  0  0  0
 23 61  1  0  0  0
 23 62  1  0  0  0
 24 25  1  0  0  0
 24 63  1  0  0  0
 25 26  2  0  0  0
 27 28  2  0  0  0
 27 29  1  0  0  0
 29 37  1  0  0  0
 29 30  2  0  0  0
 30 31  1  0  0  0
 31 36  2  0  0  0
 31 32  1  0  0  0
 32 33  2  0  0  0
 32 64  1  0  0  0
 33 34  1  0  0  0
 33 65  1  0  0  0
 34 35  2  0  0  0
 34 66  1  0  0  0
 35 36  1  0  0  0
 35 67  1  0  0  0
 36 37  1  0  0  0
M  END
$$$$
