@<TRIPOS>MOLECULE
*****
 67 70 0 0 0
SMALL
GASTEIGER
****
Schrodinger Suite 2019-4.
@<TRIPOS>ATOM
      1 C         -24.1309   -4.8277  -28.6172 C.3     1  UNL1       -0.0605
      2 C         -23.0430   -3.7639  -28.8582 C.3     1  UNL1       -0.0196
      3 C         -23.2721   -3.0492  -30.2004 C.3     1  UNL1       -0.0605
      4 C         -21.5881   -4.2885  -28.7359 C.3     1  UNL1        0.1048
      5 N         -21.3273   -5.3590  -29.7038 N.am    1  UNL1       -0.2696
      6 C         -20.0615   -5.8770  -29.9217 C.2     1  UNL1        0.4012
      7 O         -19.0051   -5.3762  -29.5427 O.2     1  UNL1       -0.2265
      8 O         -20.1669   -7.0814  -30.4982 O.3     1  UNL1       -0.4456
      9 C         -19.0125   -7.9110  -30.6110 C.3     1  UNL1        0.1191
     10 C         -18.5676   -8.5959  -29.3192 C.ar    1  UNL1       -0.0103
     11 C         -17.3457   -9.3005  -29.3034 C.ar    1  UNL1       -0.0554
     12 C         -16.9569  -10.0303  -28.1627 C.ar    1  UNL1       -0.0614
     13 C         -17.7946  -10.0752  -27.0330 C.ar    1  UNL1       -0.0617
     14 C         -18.9995   -9.3503  -27.0282 C.ar    1  UNL1       -0.0614
     15 C         -19.3723   -8.5965  -28.1577 C.ar    1  UNL1       -0.0554
     16 C         -21.2928   -4.8086  -27.3161 C.2     1  UNL1        0.2343
     17 O         -21.5454   -5.9826  -27.0322 O.2     1  UNL1       -0.2738
     18 N         -20.7468   -3.9496  -26.4387 N.am    1  UNL1       -0.3037
     19 C         -20.2894   -4.3405  -25.1004 C.3     1  UNL1        0.0888
     20 C         -18.7635   -4.1302  -24.9974 C.3     1  UNL1       -0.0160
     21 C         -17.9865   -5.2953  -25.6299 C.3     1  UNL1        0.0390
     22 C         -18.2696   -6.6475  -24.9592 C.3     1  UNL1       -0.0262
     23 C         -16.9257   -7.3749  -24.9000 C.3     1  UNL1        0.0123
     24 N         -15.9573   -6.3153  -25.0275 N.am    1  UNL1       -0.3151
     25 C         -16.4836   -5.1740  -25.4540 C.2     1  UNL1        0.2162
     26 O         -15.8513   -4.1563  -25.7037 O.2     1  UNL1       -0.2755
     27 C         -21.0645   -3.6286  -23.9872 C.2     1  UNL1        0.2079
     28 O         -20.5208   -2.9492  -23.1209 O.2     1  UNL1       -0.2879
     29 C         -22.5277   -3.8541  -23.9267 C.ar    1  UNL1        0.1465
     30 N         -23.1817   -4.7699  -24.6449 N.ar    1  UNL1       -0.2360
     31 C         -24.5081   -4.8183  -24.2633 C.ar    1  UNL1        0.0790
     32 C         -25.4859   -5.7122  -24.7481 C.ar    1  UNL1       -0.0352
     33 C         -26.7965   -5.6888  -24.2438 C.ar    1  UNL1       -0.0597
     34 C         -27.1418   -4.7679  -23.2425 C.ar    1  UNL1       -0.0606
     35 C         -26.1917   -3.8558  -22.7478 C.ar    1  UNL1       -0.0459
     36 C         -24.8860   -3.8871  -23.2547 C.ar    1  UNL1        0.0396
     37 S         -23.4988   -2.9189  -22.7863 S.2     1  UNL1       -0.0643
     38 H         -24.0673   -5.2655  -27.6217 H       1  UNL1        0.0233
     39 H         -25.1173   -4.3781  -28.6995 H       1  UNL1        0.0233
     40 H         -24.0753   -5.6360  -29.3463 H       1  UNL1        0.0233
     41 H         -23.1718   -3.0031  -28.0857 H       1  UNL1        0.0318
     42 H         -22.5066   -2.2929  -30.3783 H       1  UNL1        0.0233
     43 H         -23.2535   -3.7477  -31.0375 H       1  UNL1        0.0233
     44 H         -24.2347   -2.5380  -30.2101 H       1  UNL1        0.0233
     45 H         -20.9013   -3.4707  -28.9513 H       1  UNL1        0.0598
     46 H         -22.1032   -5.9023  -30.0524 H       1  UNL1        0.1528
     47 H         -18.1820   -7.3477  -31.0301 H       1  UNL1        0.0749
     48 H         -19.2425   -8.6918  -31.3352 H       1  UNL1        0.0749
     49 H         -16.7072   -9.2947  -30.1748 H       1  UNL1        0.0621
     50 H         -16.0174  -10.5630  -28.1593 H       1  UNL1        0.0618
     51 H         -17.5003  -10.6437  -26.1634 H       1  UNL1        0.0618
     52 H         -19.6384   -9.3736  -26.1576 H       1  UNL1        0.0618
     53 H         -20.3036   -8.0564  -28.1389 H       1  UNL1        0.0621
     54 H         -20.5845   -2.9962  -26.7322 H       1  UNL1        0.1495
     55 H         -20.4940   -5.3958  -24.9280 H       1  UNL1        0.0582
     56 H         -18.4483   -4.0539  -23.9558 H       1  UNL1        0.0295
     57 H         -18.4845   -3.1849  -25.4651 H       1  UNL1        0.0295
     58 H         -18.1905   -5.3580  -26.6999 H       1  UNL1        0.0395
     59 H         -19.0338   -7.2119  -25.4870 H       1  UNL1        0.0288
     60 H         -18.6363   -6.4978  -23.9454 H       1  UNL1        0.0288
     61 H         -16.7875   -8.0394  -25.7487 H       1  UNL1        0.0462
     62 H         -16.7965   -7.9475  -23.9822 H       1  UNL1        0.0462
     63 H         -14.9652   -6.4665  -24.8943 H       1  UNL1        0.1487
     64 H         -25.2164   -6.4348  -25.5042 H       1  UNL1        0.0639
     65 H         -27.5334   -6.3856  -24.6164 H       1  UNL1        0.0618
     66 H         -28.1424   -4.7831  -22.8528 H       1  UNL1        0.0618
     67 H         -26.4489   -3.1547  -21.9687 H       1  UNL1        0.0629
@<TRIPOS>BOND
     1     1     2    1
     2     1    38    1
     3     1    39    1
     4     1    40    1
     5     2     3    1
     6     2     4    1
     7     2    41    1
     8     3    42    1
     9     3    43    1
    10     3    44    1
    11     4     5    1
    12     4    16    1
    13     4    45    1
    14     5     6   am
    15     5    46    1
    16     6     7    2
    17     6     8    1
    18     8     9    1
    19     9    10    1
    20     9    47    1
    21     9    48    1
    22    10    15   ar
    23    10    11   ar
    24    11    12   ar
    25    11    49    1
    26    12    13   ar
    27    12    50    1
    28    13    14   ar
    29    13    51    1
    30    14    15   ar
    31    14    52    1
    32    15    53    1
    33    16    17    2
    34    16    18   am
    35    18    19    1
    36    18    54    1
    37    19    20    1
    38    19    27    1
    39    19    55    1
    40    20    21    1
    41    20    56    1
    42    20    57    1
    43    21    25    1
    44    21    22    1
    45    21    58    1
    46    22    23    1
    47    22    59    1
    48    22    60    1
    49    23    24    1
    50    23    61    1
    51    23    62    1
    52    24    25   am
    53    24    63    1
    54    25    26    2
    55    27    28    2
    56    27    29    1
    57    29    37   ar
    58    29    30   ar
    59    30    31   ar
    60    31    36   ar
    61    31    32   ar
    62    32    33   ar
    63    32    64    1
    64    33    34   ar
    65    33    65    1
    66    34    35   ar
    67    34    66    1
    68    35    36   ar
    69    35    67    1
    70    36    37   ar
