@<TRIPOS>MOLECULE
/home/lixiaoshuang.lxs/med/data/m_pro/PDB_BA/5n19/5n19_ligand.pdb
 42 45 0 0 0
SMALL
GASTEIGER

@<TRIPOS>ATOM
      1  O01      -16.2250    1.6710  -22.2720 O.2   401  D03401     -0.2684
      2  C02      -17.3930    1.9290  -22.2780 C.2   401  D03401      0.2653
      3  C03      -17.9540    3.2040  -22.8360 C.2   401  D03401      0.0595
      4  C05      -17.2260    4.0040  -23.6370 C.2   401  D03401      0.0047
      5  C07      -17.7670    5.2320  -24.2800 C.ar  401  D03401      0.0001
      6  C16      -16.8500    6.0830  -24.9120 C.ar  401  D03401      0.0000
      7  C14      -17.3010    7.2590  -25.5440 C.ar  401  D03401      0.0000
      8  C12      -18.6630    7.5810  -25.5500 C.ar  401  D03401      0.0000
      9  C10      -19.5910    6.7320  -24.9320 C.ar  401  D03401      0.0000
     10  C08      -19.1500    5.5560  -24.3080 C.ar  401  D03401      0.0000
     11  N18      -18.1980    0.9140  -22.0350 N.am  401  D03401     -0.1937
     12  C20      -17.6890   -0.4390  -21.8040 C.3   401  D03401      0.1773
     13  C22      -18.8100   -1.3470  -21.2470 C.3   401  D03401      0.0574
     14  C25      -19.0760   -0.7330  -19.8690 C.ar  401  D03401     -0.0200
     15  C34      -18.2650   -1.0860  -18.8020 C.ar  401  D03401     -0.0042
     16  C32      -18.4740   -0.4790  -17.5460 C.ar  401  D03401     -0.0003
     17  C30      -19.5560    0.4310  -17.4080 C.ar  401  D03401     -0.0000
     18  C28      -20.4010    0.8010  -18.4900 C.ar  401  D03401     -0.0003
     19  C26      -20.1460    0.2150  -19.7350 C.ar  401  D03401     -0.0042
     20  C36      -17.0400   -1.0390  -22.9980 C.2   401  D03401      0.2616
     21  O37      -17.5480   -0.9270  -24.1050 O.2   401  D03401     -0.2715
     22  N38      -15.8270   -1.6500  -22.8120 N.am  401  D03401     -0.2026
     23  C40      -15.1070   -2.1750  -23.9430 C.3   401  D03401      0.1352
     24  C42      -13.7680   -1.4290  -24.1360 C.3   401  D03401      0.0340
     25  C45      -13.9030    0.0250  -24.4860 C.3   401  D03401      0.0818
     26  C47      -12.6060    0.7840  -24.6760 C.2   401  D03401      0.2410
     27  O48      -11.7970    0.8990  -23.7940 O.2   401  D03401     -0.2734
     28  N49      -12.7840    1.6830  -25.6620 N.am  401  D03401     -0.2054
     29  C51      -14.1060    1.5830  -26.3010 C.3   401  D03401      0.1156
     30  C54      -14.7620    0.3470  -25.7280 C.3   401  D03401      0.0326
     31  C57      -14.8210   -3.6860  -23.7760 C.3   401  D03401      0.2487
     32  O58      -14.1400   -4.1950  -24.8930 O.3   401  D03401     -0.2113
     33  C66      -16.0750   -4.4980  -23.7060 C.2   401  D03401      0.2739
     34  O67      -16.4550   -4.9130  -22.6530 O.2   401  D03401     -0.2705
     35  N68      -16.8020   -4.7260  -24.7690 N.am  401  D03401     -0.1984
     36  C70      -18.0630   -5.5260  -24.5140 C.3   401  D03401      0.1415
     37  C73      -19.3640   -4.9080  -23.9480 C.ar  401  D03401     -0.0006
     38  C74      -19.8270   -3.6270  -24.3230 C.ar  401  D03401     -0.0026
     39  C76      -20.2290   -5.6760  -23.1250 C.ar  401  D03401     -0.0026
     40  C78      -21.4920   -5.2170  -22.6630 C.ar  401  D03401     -0.0003
     41  C80      -21.9140   -3.9360  -23.0170 C.ar  401  D03401     -0.0000
     42  C82      -21.0730   -3.1360  -23.8370 C.ar  401  D03401     -0.0003
@<TRIPOS>BOND
     1    29    30    1
     2    29    28    1
     3    30    25    1
     4    28    26   am
     5     8     7   ar
     6     8     9   ar
     7     7     6   ar
     8     9    10   ar
     9     6     5   ar
    10    32    31    1
    11    35    36    1
    12    35    33   am
    13    26    25    1
    14    26    27    2
    15    36    37    1
    16    25    24    1
    17    38    37   ar
    18    38    42   ar
    19    10     5   ar
    20     5     4    1
    21    24    23    1
    22    21    20    2
    23    37    39   ar
    24    23    31    1
    25    23    22    1
    26    42    41   ar
    27    31    33    1
    28    33    34    2
    29     4     3    2
    30    39    40   ar
    31    41    40   ar
    32    20    22   am
    33    20    12    1
    34     3     2    1
    35     2     1    2
    36     2    11   am
    37    11    12    1
    38    12    13    1
    39    13    14    1
    40    14    19   ar
    41    14    15   ar
    42    19    18   ar
    43    15    16   ar
    44    18    17   ar
    45    16    17   ar
