
                    3D
 Schrodinger Suite 2019-4.
 71 71  0  0  1  0            999 V2000
  -23.9878   -1.5782  -30.5562 C   0  0  0  0  0  0
  -22.8049   -2.5595  -30.5939 C   0  0  0  0  0  0
  -22.7854   -3.3283  -31.9288 C   0  0  0  0  0  0
  -22.8075   -3.4813  -29.3520 C   0  0  0  0  0  0
  -21.4532   -4.1748  -29.0713 C   0  0  2  0  0  0
  -21.1941   -5.2229  -30.0582 N   0  0  0  0  0  0
  -19.9644   -5.6602  -30.3768 C   0  0  0  0  0  0
  -18.9295   -5.1501  -29.9448 O   0  0  0  0  0  0
  -19.8893   -6.8958  -31.3101 C   0  0  1  0  0  0
  -18.9293   -6.6691  -32.4061 N   0  0  0  0  0  0
  -19.3631   -6.3466  -33.6821 C   0  0  0  0  0  0
  -20.5285   -6.1702  -34.0395 O   0  0  0  0  0  0
  -18.2949   -6.2541  -34.5045 O   0  0  0  0  0  0
  -18.4618   -6.1493  -35.9194 C   0  0  0  0  0  0
  -18.7738   -7.5071  -36.5370 C   0  0  0  0  0  0
  -17.7293   -8.3079  -37.0047 C   0  0  0  0  0  0
  -18.0057   -9.5551  -37.5582 C   0  0  0  0  0  0
  -19.3246   -9.9916  -37.6529 C   0  0  0  0  0  0
  -20.3735   -9.1951  -37.1961 C   0  0  0  0  0  0
  -20.0972   -7.9494  -36.6366 C   0  0  0  0  0  0
  -19.4678   -8.1595  -30.4863 C   0  0  0  0  0  0
  -20.5337   -8.5941  -29.4596 C   0  0  0  0  0  0
  -18.0744   -8.0994  -29.8178 C   0  0  0  0  0  0
  -21.4309   -4.7997  -27.6658 C   0  0  0  0  0  0
  -22.1072   -5.8020  -27.4369 O   0  0  0  0  0  0
  -20.6624   -4.1802  -26.7502 N   0  0  0  0  0  0
  -20.3826   -4.6844  -25.3929 C   0  0  1  0  0  0
  -18.8479   -4.5868  -25.1374 C   0  0  0  0  0  0
  -17.9529   -5.4437  -26.0629 C   0  0  0  0  0  0
  -18.1593   -6.9402  -25.8416 C   0  0  0  0  0  0
  -17.4256   -7.4993  -24.9993 O   0  0  0  0  0  0
  -21.1948   -3.8864  -24.3615 C   0  0  0  0  0  0
  -20.6993   -3.5506  -23.2806 O   0  0  0  0  0  0
  -22.6130   -3.3827  -24.7173 C   0  0  0  0  0  0
  -23.3287   -4.3499  -25.2806 F   0  0  0  0  0  0
  -23.2452   -2.9682  -23.6157 F   0  0  0  0  0  0
  -22.5292   -2.3529  -25.5597 F   0  0  0  0  0  0
  -19.0806   -7.4927  -26.4797 O   0  5  0  0  0  0
  -24.1219   -1.1485  -29.5635 H   0  0  0  0  0  0
  -23.8267   -0.7501  -31.2451 H   0  0  0  0  0  0
  -24.9226   -2.0661  -30.8371 H   0  0  0  0  0  0
  -21.9028   -1.9457  -30.5479 H   0  0  0  0  0  0
  -21.7701   -3.3932  -32.3233 H   0  0  0  0  0  0
  -23.1584   -4.3476  -31.8108 H   0  0  0  0  0  0
  -23.3991   -2.8450  -32.6914 H   0  0  0  0  0  0
  -23.6151   -4.2130  -29.4168 H   0  0  0  0  0  0
  -23.0462   -2.8685  -28.4817 H   0  0  0  0  0  0
  -20.6649   -3.4205  -29.1291 H   0  0  0  0  0  0
  -22.0047   -5.7260  -30.3974 H   0  0  0  0  0  0
  -20.8856   -7.0903  -31.7128 H   0  0  0  0  0  0
  -17.9464   -6.5481  -32.1820 H   0  0  0  0  0  0
  -17.5331   -5.7690  -36.3491 H   0  0  0  0  0  0
  -19.2327   -5.4214  -36.1842 H   0  0  0  0  0  0
  -16.7064   -7.9681  -36.9412 H   0  0  0  0  0  0
  -17.2002  -10.1794  -37.9153 H   0  0  0  0  0  0
  -19.5388  -10.9584  -38.0830 H   0  0  0  0  0  0
  -21.3966   -9.5329  -37.2795 H   0  0  0  0  0  0
  -20.9131   -7.3306  -36.2942 H   0  0  0  0  0  0
  -19.4109   -8.9768  -31.2067 H   0  0  0  0  0  0
  -20.2593   -9.5327  -28.9792 H   0  0  0  0  0  0
  -20.6554   -7.8538  -28.6679 H   0  0  0  0  0  0
  -21.5046   -8.7407  -29.9322 H   0  0  0  0  0  0
  -17.8058   -9.0628  -29.3803 H   0  0  0  0  0  0
  -17.2931   -7.8391  -30.5323 H   0  0  0  0  0  0
  -18.0451   -7.3694  -29.0102 H   0  0  0  0  0  0
  -20.1426   -3.3600  -27.0320 H   0  0  0  0  0  0
  -20.6809   -5.7313  -25.2948 H   0  0  0  0  0  0
  -18.6278   -4.8809  -24.1100 H   0  0  0  0  0  0
  -18.5243   -3.5480  -25.2169 H   0  0  0  0  0  0
  -16.9037   -5.2125  -25.8797 H   0  0  0  0  0  0
  -18.1337   -5.2103  -27.1127 H   0  0  0  0  0  0
  1  2  1  0  0  0
  1 39  1  0  0  0
  1 40  1  0  0  0
  1 41  1  0  0  0
  2  3  1  0  0  0
  2  4  1  0  0  0
  2 42  1  0  0  0
  3 43  1  0  0  0
  3 44  1  0  0  0
  3 45  1  0  0  0
  4  5  1  0  0  0
  4 46  1  0  0  0
  4 47  1  0  0  0
  5  6  1  0  0  0
  5 24  1  0  0  0
  5 48  1  0  0  0
  6  7  1  0  0  0
  6 49  1  0  0  0
  7  8  2  0  0  0
  7  9  1  0  0  0
  9 10  1  0  0  0
  9 21  1  0  0  0
  9 50  1  0  0  0
 10 11  1  0  0  0
 10 51  1  0  0  0
 11 12  2  0  0  0
 11 13  1  0  0  0
 13 14  1  0  0  0
 14 15  1  0  0  0
 14 52  1  0  0  0
 14 53  1  0  0  0
 15 20  1  0  0  0
 15 16  2  0  0  0
 16 17  1  0  0  0
 16 54  1  0  0  0
 17 18  2  0  0  0
 17 55  1  0  0  0
 18 19  1  0  0  0
 18 56  1  0  0  0
 19 20  2  0  0  0
 19 57  1  0  0  0
 20 58  1  0  0  0
 21 22  1  0  0  0
 21 23  1  0  0  0
 21 59  1  0  0  0
 22 60  1  0  0  0
 22 61  1  0  0  0
 22 62  1  0  0  0
 23 63  1  0  0  0
 23 64  1  0  0  0
 23 65  1  0  0  0
 24 25  2  0  0  0
 24 26  1  0  0  0
 26 27  1  0  0  0
 26 66  1  0  0  0
 27 28  1  0  0  0
 27 32  1  0  0  0
 27 67  1  0  0  0
 28 29  1  0  0  0
 28 68  1  0  0  0
 28 69  1  0  0  0
 29 30  1  0  0  0
 29 70  1  0  0  0
 29 71  1  0  0  0
 30 31  2  0  0  0
 30 38  1  0  0  0
 32 33  2  0  0  0
 32 34  1  0  0  0
 34 35  1  0  0  0
 34 36  1  0  0  0
 34 37  1  0  0  0
M  CHG  1  38  -1
M  END
$$$$
