@<TRIPOS>MOLECULE
*****
 71 71 0 0 0
SMALL
GASTEIGER
****
Schrodinger Suite 2019-4.
@<TRIPOS>ATOM
      1 C         -23.9878   -1.5782  -30.5562 C.3     1  UNL1       -0.0626
      2 C         -22.8049   -2.5595  -30.5939 C.3     1  UNL1       -0.0446
      3 C         -22.7854   -3.3283  -31.9288 C.3     1  UNL1       -0.0626
      4 C         -22.8075   -3.4813  -29.3520 C.3     1  UNL1       -0.0236
      5 C         -21.4532   -4.1748  -29.0713 C.3     1  UNL1        0.0996
      6 N         -21.1941   -5.2229  -30.0582 N.am    1  UNL1       -0.3025
      7 C         -19.9644   -5.6602  -30.3768 C.2     1  UNL1        0.2343
      8 O         -18.9295   -5.1501  -29.9448 O.2     1  UNL1       -0.2738
      9 C         -19.8893   -6.8958  -31.3101 C.3     1  UNL1        0.1048
     10 N         -18.9293   -6.6691  -32.4061 N.am    1  UNL1       -0.2696
     11 C         -19.3631   -6.3466  -33.6821 C.2     1  UNL1        0.4012
     12 O         -20.5285   -6.1702  -34.0395 O.2     1  UNL1       -0.2265
     13 O         -18.2949   -6.2541  -34.5045 O.3     1  UNL1       -0.4456
     14 C         -18.4618   -6.1493  -35.9194 C.3     1  UNL1        0.1191
     15 C         -18.7738   -7.5071  -36.5370 C.ar    1  UNL1       -0.0103
     16 C         -17.7293   -8.3079  -37.0047 C.ar    1  UNL1       -0.0554
     17 C         -18.0057   -9.5551  -37.5582 C.ar    1  UNL1       -0.0614
     18 C         -19.3246   -9.9916  -37.6529 C.ar    1  UNL1       -0.0617
     19 C         -20.3735   -9.1951  -37.1961 C.ar    1  UNL1       -0.0614
     20 C         -20.0972   -7.9494  -36.6366 C.ar    1  UNL1       -0.0554
     21 C         -19.4678   -8.1595  -30.4863 C.3     1  UNL1       -0.0196
     22 C         -20.5337   -8.5941  -29.4596 C.3     1  UNL1       -0.0605
     23 C         -18.0744   -8.0994  -29.8178 C.3     1  UNL1       -0.0605
     24 C         -21.4309   -4.7997  -27.6658 C.2     1  UNL1        0.2339
     25 O         -22.1072   -5.8020  -27.4369 O.2     1  UNL1       -0.2738
     26 N         -20.6624   -4.1802  -26.7502 N.am    1  UNL1       -0.3038
     27 C         -20.3826   -4.6844  -25.3929 C.3     1  UNL1        0.0907
     28 C         -18.8479   -4.5868  -25.1374 C.3     1  UNL1       -0.0222
     29 C         -17.9529   -5.4437  -26.0629 C.3     1  UNL1       -0.0111
     30 C         -18.1593   -6.9402  -25.8416 C.2     1  UNL1        0.0418
     31 O         -17.4256   -7.4993  -24.9993 O.co2   1  UNL1       -0.5498
     32 C         -21.1948   -3.8864  -24.3615 C.2     1  UNL1        0.2553
     33 O         -20.6993   -3.5506  -23.2806 O.2     1  UNL1       -0.2860
     34 C         -22.6130   -3.3827  -24.7173 C.3     1  UNL1        0.4525
     35 F         -23.3287   -4.3499  -25.2806 F       1  UNL1       -0.1633
     36 F         -23.2452   -2.9682  -23.6157 F       1  UNL1       -0.1633
     37 F         -22.5292   -2.3529  -25.5597 F       1  UNL1       -0.1633
     38 O         -19.0806   -7.4927  -26.4797 O.co2   1  UNL1       -0.5498
     39 H         -24.1219   -1.1485  -29.5635 H       1  UNL1        0.0232
     40 H         -23.8267   -0.7501  -31.2451 H       1  UNL1        0.0232
     41 H         -24.9226   -2.0661  -30.8371 H       1  UNL1        0.0232
     42 H         -21.9028   -1.9457  -30.5479 H       1  UNL1        0.0296
     43 H         -21.7701   -3.3932  -32.3233 H       1  UNL1        0.0232
     44 H         -23.1584   -4.3476  -31.8108 H       1  UNL1        0.0232
     45 H         -23.3991   -2.8450  -32.6914 H       1  UNL1        0.0232
     46 H         -23.6151   -4.2130  -29.4168 H       1  UNL1        0.0290
     47 H         -23.0462   -2.8685  -28.4817 H       1  UNL1        0.0290
     48 H         -20.6649   -3.4205  -29.1291 H       1  UNL1        0.0594
     49 H         -22.0047   -5.7260  -30.3974 H       1  UNL1        0.1495
     50 H         -20.8856   -7.0903  -31.7128 H       1  UNL1        0.0598
     51 H         -17.9464   -6.5481  -32.1820 H       1  UNL1        0.1528
     52 H         -17.5331   -5.7690  -36.3491 H       1  UNL1        0.0749
     53 H         -19.2327   -5.4214  -36.1842 H       1  UNL1        0.0749
     54 H         -16.7064   -7.9681  -36.9412 H       1  UNL1        0.0621
     55 H         -17.2002  -10.1794  -37.9153 H       1  UNL1        0.0618
     56 H         -19.5388  -10.9584  -38.0830 H       1  UNL1        0.0618
     57 H         -21.3966   -9.5329  -37.2795 H       1  UNL1        0.0618
     58 H         -20.9131   -7.3306  -36.2942 H       1  UNL1        0.0621
     59 H         -19.4109   -8.9768  -31.2067 H       1  UNL1        0.0318
     60 H         -20.2593   -9.5327  -28.9792 H       1  UNL1        0.0233
     61 H         -20.6554   -7.8538  -28.6679 H       1  UNL1        0.0233
     62 H         -21.5046   -8.7407  -29.9322 H       1  UNL1        0.0233
     63 H         -17.8058   -9.0628  -29.3803 H       1  UNL1        0.0233
     64 H         -17.2931   -7.8391  -30.5323 H       1  UNL1        0.0233
     65 H         -18.0451   -7.3694  -29.0102 H       1  UNL1        0.0233
     66 H         -20.1426   -3.3600  -27.0320 H       1  UNL1        0.1494
     67 H         -20.6809   -5.7313  -25.2948 H       1  UNL1        0.0580
     68 H         -18.6278   -4.8809  -24.1100 H       1  UNL1        0.0291
     69 H         -18.5243   -3.5480  -25.2169 H       1  UNL1        0.0291
     70 H         -16.9037   -5.2125  -25.8797 H       1  UNL1        0.0325
     71 H         -18.1337   -5.2103  -27.1127 H       1  UNL1        0.0325
@<TRIPOS>BOND
     1     1     2    1
     2     1    39    1
     3     1    40    1
     4     1    41    1
     5     2     3    1
     6     2     4    1
     7     2    42    1
     8     3    43    1
     9     3    44    1
    10     3    45    1
    11     4     5    1
    12     4    46    1
    13     4    47    1
    14     5     6    1
    15     5    24    1
    16     5    48    1
    17     6     7   am
    18     6    49    1
    19     7     8    2
    20     7     9    1
    21     9    10    1
    22     9    21    1
    23     9    50    1
    24    10    11   am
    25    10    51    1
    26    11    12    2
    27    11    13    1
    28    13    14    1
    29    14    15    1
    30    14    52    1
    31    14    53    1
    32    15    20   ar
    33    15    16   ar
    34    16    17   ar
    35    16    54    1
    36    17    18   ar
    37    17    55    1
    38    18    19   ar
    39    18    56    1
    40    19    20   ar
    41    19    57    1
    42    20    58    1
    43    21    22    1
    44    21    23    1
    45    21    59    1
    46    22    60    1
    47    22    61    1
    48    22    62    1
    49    23    63    1
    50    23    64    1
    51    23    65    1
    52    24    25    2
    53    24    26   am
    54    26    27    1
    55    26    66    1
    56    27    28    1
    57    27    32    1
    58    27    67    1
    59    28    29    1
    60    28    68    1
    61    28    69    1
    62    29    30    1
    63    29    70    1
    64    29    71    1
    65    30    31   ar
    66    30    38   ar
    67    32    33    2
    68    32    34    1
    69    34    35    1
    70    34    36    1
    71    34    37    1
