@<TRIPOS>MOLECULE
/home/lixiaoshuang.lxs/med/data/m_pro/PDB_BA/3vb7/3vb7_ligand.pdb
 29 28 0 0 0
SMALL
GASTEIGER

@<TRIPOS>ATOM
      1  N         -1.9420  -20.2680   36.4730 N.3     2  ALA2       -0.1231
      2  CA        -1.9560  -18.8170   36.5680 C.3     2  ALA2        0.1694
      3  C         -1.1490  -18.3530   37.7520 C.2     2  ALA2        0.2592
      4  O         -1.2210  -18.9440   38.8170 O.2     2  ALA2       -0.2718
      5  CB        -3.3890  -18.3080   36.7120 C.3     2  ALA2        0.0304
      6  N         -0.3850  -17.2730   37.5740 N.am    3  VAL3       -0.1966
      7  CA         0.4350  -16.7170   38.6460 C.3     3  VAL3        0.1727
      8  C          0.2220  -15.2310   38.7650 C.2     3  VAL3        0.2616
      9  O          0.4190  -14.5000   37.8080 O.2     3  VAL3       -0.2715
     10  CB         1.8790  -16.9650   38.2090 C.3     3  VAL3        0.0290
     11  CG1        2.8550  -16.1370   39.0350 C.3     3  VAL3        0.0023
     12  CG2        2.2490  -18.4470   38.2530 C.3     3  VAL3        0.0023
     13  N         -0.1780  -14.7460   39.9390 N.am    4  LEU4       -0.1963
     14  CA        -0.3880  -13.3070   40.1030 C.3     4  LEU4        0.1728
     15  C          0.9270  -12.5760   40.1940 C.2     4  LEU4        0.2615
     16  O          1.5640  -12.5150   41.2380 O.2     4  LEU4       -0.2715
     17  CB        -1.2120  -13.1560   41.3760 C.3     4  LEU4        0.0311
     18  CG        -2.6780  -13.5070   41.1030 C.3     4  LEU4        0.0022
     19  CD1       -3.5830  -12.6810   42.0010 C.3     4  LEU4        0.0001
     20  CD2       -3.0890  -13.2980   39.6430 C.3     4  LEU4        0.0001
     21  C          2.5820   -9.8310   39.2230 C.2     5  0JU5        0.1171
     22  NF         3.5880   -9.3380   39.7990 N.2     5  0JU5       -0.1496
     23  CA         2.6000  -11.3010   38.9140 C.3     5  0JU5        0.1387
     24  N          1.3370  -12.0200   39.0590 N.am    5  0JU5       -0.1995
     25  CB         2.8800  -11.4690   37.4280 C.3     5  0JU5        0.0375
     26  CG         4.3400  -11.8080   37.1890 C.3     5  0JU5        0.0907
     27  CD         4.4750  -12.1890   35.7400 C.2     5  0JU5        0.2608
     28  OE         3.7040  -11.7230   34.9060 O.2     5  0JU5       -0.2717
     29  NE         5.4570  -13.0450   35.4560 N.am    5  0JU5       -0.0878
@<TRIPOS>BOND
     1    28    27    2
     2    29    27   am
     3    27    26    1
     4     1     2    1
     5     2     5    1
     6     2     3    1
     7    26    25    1
     8    25    23    1
     9     6     3   am
    10     6     7    1
    11     3     4    2
    12     9     8    2
    13    10    12    1
    14    10     7    1
    15    10    11    1
    16     7     8    1
    17     8    13   am
    18    23    24    1
    19    23    21    1
    20    24    15   am
    21    21    22    2
    22    20    18    1
    23    13    14    1
    24    14    15    1
    25    14    17    1
    26    15    16    2
    27    18    17    1
    28    18    19    1
