
                    3D
 Schrodinger Suite 2019-4.
 43 45  0  0  1  0            999 V2000
  -20.4603   -4.3140  -27.1750 C   0  0  0  0  0  0
  -21.1272   -3.9683  -25.8458 C   0  0  0  0  0  0
  -20.2924   -3.9077  -24.7207 C   0  0  0  0  0  0
  -20.8009   -3.5907  -23.4646 C   0  0  0  0  0  0
  -22.1594   -3.3420  -23.3191 C   0  0  0  0  0  0
  -22.7015   -3.0012  -22.0845 N   0  0  0  0  0  0
  -22.9983   -3.4028  -24.4220 C   0  0  0  0  0  0
  -22.5200   -3.7174  -25.7077 C   0  0  0  0  0  0
  -23.5064   -3.7991  -26.8700 C   0  0  0  0  0  0
  -23.1369   -3.9154  -28.0385 O   0  0  0  0  0  0
  -24.8177   -3.8004  -26.5469 N   0  0  0  0  0  0
  -25.9064   -4.3245  -27.3741 C   0  0  2  0  0  0
  -27.1419   -3.4187  -27.2463 C   0  0  0  0  0  0
  -26.0422   -5.8546  -27.1455 C   0  0  0  0  0  0
  -25.0892   -6.6281  -27.8186 C   0  0  0  0  0  0
  -24.9824   -7.9931  -27.6362 C   0  0  0  0  0  0
  -25.8246   -8.6497  -26.7586 C   0  0  0  0  0  0
  -26.8562   -7.9513  -26.0971 C   0  0  0  0  0  0
  -27.7622   -8.6729  -25.2837 C   0  0  0  0  0  0
  -28.8399   -8.0327  -24.6959 C   0  0  0  0  0  0
  -29.0222   -6.6748  -24.8872 C   0  0  0  0  0  0
  -28.1262   -5.9269  -25.6463 C   0  0  0  0  0  0
  -27.0124   -6.5344  -26.3023 C   0  0  0  0  0  0
  -19.3962   -4.5245  -27.0703 H   0  0  0  0  0  0
  -20.9238   -5.1956  -27.6178 H   0  0  0  0  0  0
  -20.5695   -3.4886  -27.8787 H   0  0  0  0  0  0
  -19.2340   -4.1029  -24.8168 H   0  0  0  0  0  0
  -20.1337   -3.5432  -22.6171 H   0  0  0  0  0  0
  -23.7008   -2.8526  -22.0254 H   0  0  0  0  0  0
  -22.1042   -2.6781  -21.3406 H   0  0  0  0  0  0
  -24.0406   -3.1852  -24.2552 H   0  0  0  0  0  0
  -25.0796   -3.5176  -25.6132 H   0  0  0  0  0  0
  -25.6386   -4.1984  -28.4259 H   0  0  0  0  0  0
  -28.0210   -3.8489  -27.7282 H   0  0  0  0  0  0
  -27.3791   -3.1674  -26.2140 H   0  0  0  0  0  0
  -26.9472   -2.4646  -27.7363 H   0  0  0  0  0  0
  -24.3794   -6.1570  -28.4830 H   0  0  0  0  0  0
  -24.2260   -8.5481  -28.1692 H   0  0  0  0  0  0
  -25.7185   -9.7164  -26.6160 H   0  0  0  0  0  0
  -27.6297   -9.7367  -25.1484 H   0  0  0  0  0  0
  -29.5429   -8.5923  -24.0965 H   0  0  0  0  0  0
  -29.8767   -6.2000  -24.4329 H   0  0  0  0  0  0
  -28.3491   -4.8848  -25.7313 H   0  0  0  0  0  0
  1  2  1  0  0  0
  1 24  1  0  0  0
  1 25  1  0  0  0
  1 26  1  0  0  0
  2  8  1  0  0  0
  2  3  2  0  0  0
  3  4  1  0  0  0
  3 27  1  0  0  0
  4  5  2  0  0  0
  4 28  1  0  0  0
  5  6  1  0  0  0
  5  7  1  0  0  0
  6 29  1  0  0  0
  6 30  1  0  0  0
  7  8  2  0  0  0
  7 31  1  0  0  0
  8  9  1  0  0  0
  9 10  2  0  0  0
  9 11  1  0  0  0
 11 12  1  0  0  0
 11 32  1  0  0  0
 12 13  1  0  0  0
 12 14  1  0  0  0
 12 33  1  0  0  0
 13 34  1  0  0  0
 13 35  1  0  0  0
 13 36  1  0  0  0
 14 23  1  0  0  0
 14 15  2  0  0  0
 15 16  1  0  0  0
 15 37  1  0  0  0
 16 17  2  0  0  0
 16 38  1  0  0  0
 17 18  1  0  0  0
 17 39  1  0  0  0
 18 23  2  0  0  0
 18 19  1  0  0  0
 19 20  2  0  0  0
 19 40  1  0  0  0
 20 21  1  0  0  0
 20 41  1  0  0  0
 21 22  2  0  0  0
 21 42  1  0  0  0
 22 23  1  0  0  0
 22 43  1  0  0  0
M  END
$$$$
