@<TRIPOS>MOLECULE
*****
 43 45 0 0 0
SMALL
GASTEIGER
****
Schrodinger Suite 2019-4.
@<TRIPOS>ATOM
      1 C         -20.4603   -4.3140  -27.1750 C.3     1  UNL1       -0.0390
      2 C         -21.1272   -3.9683  -25.8458 C.ar    1  UNL1       -0.0382
      3 C         -20.2924   -3.9077  -24.7207 C.ar    1  UNL1       -0.0564
      4 C         -20.8009   -3.5907  -23.4646 C.ar    1  UNL1       -0.0408
      5 C         -22.1594   -3.3420  -23.3191 C.ar    1  UNL1        0.0253
      6 N         -22.7015   -3.0012  -22.0845 N.pl3   1  UNL1       -0.3579
      7 C         -22.9983   -3.4028  -24.4220 C.ar    1  UNL1       -0.0287
      8 C         -22.5200   -3.7174  -25.7077 C.ar    1  UNL1        0.0413
      9 C         -23.5064   -3.7991  -26.8700 C.2     1  UNL1        0.2448
     10 O         -23.1369   -3.9154  -28.0385 O.2     1  UNL1       -0.2702
     11 N         -24.8177   -3.8004  -26.5469 N.am    1  UNL1       -0.3048
     12 C         -25.9064   -4.3245  -27.3741 C.3     1  UNL1        0.0464
     13 C         -27.1419   -3.4187  -27.2463 C.3     1  UNL1       -0.0424
     14 C         -26.0422   -5.8546  -27.1455 C.ar    1  UNL1       -0.0198
     15 C         -25.0892   -6.6281  -27.8186 C.ar    1  UNL1       -0.0562
     16 C         -24.9824   -7.9931  -27.6362 C.ar    1  UNL1       -0.0609
     17 C         -25.8246   -8.6497  -26.7586 C.ar    1  UNL1       -0.0540
     18 C         -26.8562   -7.9513  -26.0971 C.ar    1  UNL1       -0.0176
     19 C         -27.7622   -8.6729  -25.2837 C.ar    1  UNL1       -0.0540
     20 C         -28.8399   -8.0327  -24.6959 C.ar    1  UNL1       -0.0612
     21 C         -29.0222   -6.6748  -24.8872 C.ar    1  UNL1       -0.0612
     22 C         -28.1262   -5.9269  -25.6463 C.ar    1  UNL1       -0.0537
     23 C         -27.0124   -6.5344  -26.3023 C.ar    1  UNL1       -0.0130
     24 H         -19.3962   -4.5245  -27.0703 H       1  UNL1        0.0278
     25 H         -20.9238   -5.1956  -27.6178 H       1  UNL1        0.0278
     26 H         -20.5695   -3.4886  -27.8787 H       1  UNL1        0.0278
     27 H         -19.2340   -4.1029  -24.8168 H       1  UNL1        0.0621
     28 H         -20.1337   -3.5432  -22.6171 H       1  UNL1        0.0636
     29 H         -23.7008   -2.8526  -22.0254 H       1  UNL1        0.1423
     30 H         -22.1042   -2.6781  -21.3406 H       1  UNL1        0.1423
     31 H         -24.0406   -3.1852  -24.2552 H       1  UNL1        0.0643
     32 H         -25.0796   -3.5176  -25.6132 H       1  UNL1        0.1496
     33 H         -25.6386   -4.1984  -28.4259 H       1  UNL1        0.0546
     34 H         -28.0210   -3.8489  -27.7282 H       1  UNL1        0.0251
     35 H         -27.3791   -3.1674  -26.2140 H       1  UNL1        0.0251
     36 H         -26.9472   -2.4646  -27.7363 H       1  UNL1        0.0251
     37 H         -24.3794   -6.1570  -28.4830 H       1  UNL1        0.0621
     38 H         -24.2260   -8.5481  -28.1692 H       1  UNL1        0.0618
     39 H         -25.7185   -9.7164  -26.6160 H       1  UNL1        0.0624
     40 H         -27.6297   -9.7367  -25.1484 H       1  UNL1        0.0624
     41 H         -29.5429   -8.5923  -24.0965 H       1  UNL1        0.0618
     42 H         -29.8767   -6.2000  -24.4329 H       1  UNL1        0.0618
     43 H         -28.3491   -4.8848  -25.7313 H       1  UNL1        0.0624
@<TRIPOS>BOND
     1     1     2    1
     2     1    24    1
     3     1    25    1
     4     1    26    1
     5     2     8   ar
     6     2     3   ar
     7     3     4   ar
     8     3    27    1
     9     4     5   ar
    10     4    28    1
    11     5     6    1
    12     5     7   ar
    13     6    29    1
    14     6    30    1
    15     7     8   ar
    16     7    31    1
    17     8     9    1
    18     9    10    2
    19     9    11   am
    20    11    12    1
    21    11    32    1
    22    12    13    1
    23    12    14    1
    24    12    33    1
    25    13    34    1
    26    13    35    1
    27    13    36    1
    28    14    23   ar
    29    14    15   ar
    30    15    16   ar
    31    15    37    1
    32    16    17   ar
    33    16    38    1
    34    17    18   ar
    35    17    39    1
    36    18    23   ar
    37    18    19   ar
    38    19    20   ar
    39    19    40    1
    40    20    21   ar
    41    20    41    1
    42    21    22   ar
    43    21    42    1
    44    22    23   ar
    45    22    43    1
