@<TRIPOS>MOLECULE
/home/lixiaoshuang.lxs/med/data/m_pro/PDB_BA/6wtt/6wtt_ligand.pdb
 29 30 0 0 0
SMALL
GASTEIGER

@<TRIPOS>ATOM
      1  C7         7.0790   26.1230   -8.7650 C.3   401  K36401      0.2368
      2  O8         6.9480   26.3190  -10.3250 O.3   401  K36401     -0.4285
      3  C9         5.8630   27.1600  -10.7150 C.2   401  K36401      0.4218
      4  O10        5.0160   26.7400  -11.4540 O.2   401  K36401     -0.2245
      5  C1         7.8220   24.8970   -8.1500 C.ar  401  K36401      0.0213
      6  C2         7.1560   23.7290   -7.7360 C.ar  401  K36401     -0.0007
      7  C3         7.8610   22.6310   -7.1880 C.ar  401  K36401     -0.0002
      8  C4         9.2640   22.6600   -7.0180 C.ar  401  K36401     -0.0000
      9  C5         9.9470   23.8140   -7.3920 C.ar  401  K36401     -0.0002
     10  C6         9.2400   24.9090   -7.9510 C.ar  401  K36401     -0.0007
     11  N11        5.7130   28.4230  -10.1800 N.am  401  K36401     -0.1611
     12  C12        4.3750   29.0900  -10.2270 C.3   401  K36401      0.1761
     13  C17        4.0180   29.6150  -11.7280 C.2   401  K36401      0.2614
     14  O18        4.9340   29.9440  -12.4220 O.2   401  K36401     -0.2715
     15  C13        4.4490   30.3250   -9.3170 C.3   401  K36401      0.0312
     16  C14        4.4030   30.1020   -7.8180 C.3   401  K36401      0.0022
     17  C15        4.2780   31.4710   -7.0480 C.3   401  K36401      0.0001
     18  C16        3.2620   29.1700   -7.4260 C.3   401  K36401      0.0001
     19  N19        2.6960   29.7820  -12.2540 N.am  401  K36401     -0.2030
     20  C20        2.4610   30.2570  -13.5450 C.3   401  K36401      0.1287
     21  C21        1.2410   31.1210  -13.5960 C.3   401  K36401      0.2036
     22  O22        1.0510   31.7630  -14.8500 O.3   401  K36401     -0.2185
     23  C24        2.2570   29.0530  -14.6680 C.3   401  K36401      0.0335
     24  C25        3.2100   27.8210  -14.5210 C.3   401  K36401      0.0818
     25  C26        4.6610   28.0840  -14.9960 C.3   401  K36401      0.0326
     26  C27        4.7900   27.4610  -16.4140 C.3   401  K36401      0.1156
     27  N28        3.6630   26.5310  -16.5010 N.am  401  K36401     -0.2054
     28  C29        2.7250   26.6810  -15.4540 C.2   401  K36401      0.2410
     29  O30        1.7170   26.0280  -15.3160 O.2   401  K36401     -0.2734
@<TRIPOS>BOND
     1    27    26    1
     2    27    28   am
     3    26    25    1
     4    28    29    2
     5    28    24    1
     6    25    24    1
     7    22    21    1
     8    23    24    1
     9    23    20    1
    10    21    20    1
    11    20    19    1
    12    14    13    2
    13    19    13   am
    14    13    12    1
    15     4     3    2
    16     3     2    1
    17     3    11   am
    18     2     1    1
    19    12    11    1
    20    12    15    1
    21    15    16    1
    22     1     5    1
    23     5    10   ar
    24     5     6   ar
    25    10     9   ar
    26    16    18    1
    27    16    17    1
    28     6     7   ar
    29     9     8   ar
    30     7     8   ar
