
                    3D
 Schrodinger Suite 2019-4.
 69 73  0  0  1  0            999 V2000
  -23.1687   -1.9764  -30.4186 C   0  0  0  0  0  0
  -23.2040   -3.5069  -30.3259 C   0  0  0  0  0  0
  -24.4882   -4.0701  -30.9323 C   0  0  0  0  0  0
  -23.0157   -4.0174  -28.8773 C   0  0  0  0  0  0
  -21.5718   -4.4513  -28.5706 C   0  0  2  0  0  0
  -21.2371   -5.5809  -29.4406 N   0  0  0  0  0  0
  -19.9968   -6.0463  -29.6349 C   0  0  0  0  0  0
  -18.9988   -5.5401  -29.1231 O   0  0  0  0  0  0
  -19.8835   -7.2270  -30.5377 C   0  0  0  0  0  0
  -18.6492   -7.6411  -30.8679 N   0  0  0  0  0  0
  -18.7752   -8.6922  -31.7485 C   0  0  0  0  0  0
  -17.8550   -9.4845  -32.4553 C   0  0  0  0  0  0
  -18.3423  -10.5026  -33.2952 C   0  0  0  0  0  0
  -19.7326  -10.7157  -33.4120 C   0  0  0  0  0  0
  -20.6470   -9.9085  -32.7003 C   0  0  0  0  0  0
  -20.1826   -8.8725  -31.8583 C   0  0  0  0  0  0
  -20.8716   -7.9424  -31.0882 N   0  0  0  0  0  0
  -21.4720   -4.9001  -27.1061 C   0  0  0  0  0  0
  -21.8092   -6.0445  -26.7986 O   0  0  0  0  0  0
  -21.0019   -4.0164  -26.2087 N   0  0  0  0  0  0
  -20.6957   -4.3596  -24.8133 C   0  0  1  0  0  0
  -19.1683   -4.2128  -24.5929 C   0  0  0  0  0  0
  -18.3419   -5.2551  -25.3880 C   0  0  2  0  0  0
  -18.6624   -6.7184  -25.0396 C   0  0  0  0  0  0
  -17.3202   -7.4590  -25.0244 C   0  0  0  0  0  0
  -16.3365   -6.4048  -24.9292 N   0  0  0  0  0  0
  -16.8408   -5.1936  -25.1397 C   0  0  0  0  0  0
  -16.1847   -4.1607  -25.1780 O   0  0  0  0  0  0
  -21.5514   -3.5363  -23.8216 C   0  0  0  0  0  0
  -21.0745   -2.9677  -22.8404 O   0  0  0  0  0  0
  -23.0200   -3.4472  -24.0767 C   0  0  0  0  0  0
  -23.8129   -2.3751  -23.9097 N   0  0  0  0  0  0
  -25.1103   -2.6790  -24.3357 C   0  0  0  0  0  0
  -26.2270   -1.8173  -24.4314 C   0  0  0  0  0  0
  -27.4451   -2.2794  -24.9709 C   0  0  0  0  0  0
  -27.6128   -3.6121  -25.3619 C   0  0  0  0  0  0
  -26.5373   -4.4972  -25.2441 C   0  0  0  0  0  0
  -25.3062   -4.0239  -24.7652 C   0  0  0  0  0  0
  -23.8233   -4.9185  -24.6251 S   0  0  0  0  0  0
  -22.2363   -1.5747  -30.0271 H   0  0  0  0  0  0
  -23.2584   -1.6481  -31.4537 H   0  0  0  0  0  0
  -23.9860   -1.5252  -29.8598 H   0  0  0  0  0  0
  -22.3906   -3.8670  -30.9558 H   0  0  0  0  0  0
  -24.4065   -5.1432  -31.0979 H   0  0  0  0  0  0
  -25.3343   -3.9090  -30.2687 H   0  0  0  0  0  0
  -24.6952   -3.6159  -31.9015 H   0  0  0  0  0  0
  -23.6788   -4.8658  -28.6943 H   0  0  0  0  0  0
  -23.3348   -3.2523  -28.1686 H   0  0  0  0  0  0
  -20.8908   -3.6210  -28.7544 H   0  0  0  0  0  0
  -22.0056   -6.0695  -29.8804 H   0  0  0  0  0  0
  -17.8002   -7.1734  -30.5740 H   0  0  0  0  0  0
  -16.7928   -9.3150  -32.3541 H   0  0  0  0  0  0
  -17.6517  -11.1232  -33.8481 H   0  0  0  0  0  0
  -20.1009  -11.5016  -34.0556 H   0  0  0  0  0  0
  -21.7086  -10.0771  -32.8019 H   0  0  0  0  0  0
  -20.7596   -3.0873  -26.5246 H   0  0  0  0  0  0
  -20.9448   -5.4001  -24.6097 H   0  0  0  0  0  0
  -18.9401   -4.3170  -23.5338 H   0  0  0  0  0  0
  -18.8463   -3.2081  -24.8697 H   0  0  0  0  0  0
  -18.4808   -5.1008  -26.4586 H   0  0  0  0  0  0
  -19.3639   -7.1667  -25.7447 H   0  0  0  0  0  0
  -19.1121   -6.7813  -24.0505 H   0  0  0  0  0  0
  -17.1599   -8.0121  -25.9512 H   0  0  0  0  0  0
  -17.2422   -8.1523  -24.1863 H   0  0  0  0  0  0
  -15.3489   -6.5920  -24.8065 H   0  0  0  0  0  0
  -26.1515   -0.7870  -24.1296 H   0  0  0  0  0  0
  -28.2932   -1.6307  -25.0557 H   0  0  0  0  0  0
  -28.5617   -3.9488  -25.7540 H   0  0  0  0  0  0
  -26.6432   -5.5267  -25.5541 H   0  0  0  0  0  0
  1  2  1  0  0  0
  1 40  1  0  0  0
  1 41  1  0  0  0
  1 42  1  0  0  0
  2  3  1  0  0  0
  2  4  1  0  0  0
  2 43  1  0  0  0
  3 44  1  0  0  0
  3 45  1  0  0  0
  3 46  1  0  0  0
  4  5  1  0  0  0
  4 47  1  0  0  0
  4 48  1  0  0  0
  5  6  1  0  0  0
  5 18  1  0  0  0
  5 49  1  0  0  0
  6  7  1  0  0  0
  6 50  1  0  0  0
  7  8  2  0  0  0
  7  9  1  0  0  0
  9 17  2  0  0  0
  9 10  1  0  0  0
 10 11  1  0  0  0
 10 51  1  0  0  0
 11 16  1  0  0  0
 11 12  2  0  0  0
 12 13  1  0  0  0
 12 52  1  0  0  0
 13 14  2  0  0  0
 13 53  1  0  0  0
 14 15  1  0  0  0
 14 54  1  0  0  0
 15 16  2  0  0  0
 15 55  1  0  0  0
 16 17  1  0  0  0
 18 19  2  0  0  0
 18 20  1  0  0  0
 20 21  1  0  0  0
 20 56  1  0  0  0
 21 22  1  0  0  0
 21 29  1  0  0  0
 21 57  1  0  0  0
 22 23  1  0  0  0
 22 58  1  0  0  0
 22 59  1  0  0  0
 23 27  1  0  0  0
 23 24  1  0  0  0
 23 60  1  0  0  0
 24 25  1  0  0  0
 24 61  1  0  0  0
 24 62  1  0  0  0
 25 26  1  0  0  0
 25 63  1  0  0  0
 25 64  1  0  0  0
 26 27  1  0  0  0
 26 65  1  0  0  0
 27 28  2  0  0  0
 29 30  2  0  0  0
 29 31  1  0  0  0
 31 39  1  0  0  0
 31 32  2  0  0  0
 32 33  1  0  0  0
 33 38  2  0  0  0
 33 34  1  0  0  0
 34 35  2  0  0  0
 34 66  1  0  0  0
 35 36  1  0  0  0
 35 67  1  0  0  0
 36 37  2  0  0  0
 36 68  1  0  0  0
 37 38  1  0  0  0
 37 69  1  0  0  0
 38 39  1  0  0  0
M  END
$$$$
