@<TRIPOS>MOLECULE
*****
 69 73 0 0 0
SMALL
GASTEIGER
****
Schrodinger Suite 2019-4.
@<TRIPOS>ATOM
      1 C         -23.1687   -1.9764  -30.4186 C.3     1  UNL1       -0.0626
      2 C         -23.2040   -3.5069  -30.3259 C.3     1  UNL1       -0.0446
      3 C         -24.4882   -4.0701  -30.9323 C.3     1  UNL1       -0.0626
      4 C         -23.0157   -4.0174  -28.8773 C.3     1  UNL1       -0.0236
      5 C         -21.5718   -4.4513  -28.5706 C.3     1  UNL1        0.1000
      6 N         -21.2371   -5.5809  -29.4406 N.am    1  UNL1       -0.2975
      7 C         -19.9968   -6.0463  -29.6349 C.2     1  UNL1        0.2800
      8 O         -18.9988   -5.5401  -29.1231 O.2     1  UNL1       -0.2668
      9 C         -19.8835   -7.2270  -30.5377 C.ar    1  UNL1        0.1949
     10 N         -18.6492   -7.6411  -30.8679 N.ar    1  UNL1       -0.3342
     11 C         -18.7752   -8.6922  -31.7485 C.ar    1  UNL1        0.0666
     12 C         -17.8550   -9.4845  -32.4553 C.ar    1  UNL1       -0.0362
     13 C         -18.3423  -10.5026  -33.2952 C.ar    1  UNL1       -0.0597
     14 C         -19.7326  -10.7157  -33.4120 C.ar    1  UNL1       -0.0596
     15 C         -20.6470   -9.9085  -32.7003 C.ar    1  UNL1       -0.0342
     16 C         -20.1826   -8.8725  -31.8583 C.ar    1  UNL1        0.0896
     17 N         -20.8716   -7.9424  -31.0882 N.ar    1  UNL1       -0.2235
     18 C         -21.4720   -4.9001  -27.1061 C.2     1  UNL1        0.2339
     19 O         -21.8092   -6.0445  -26.7986 O.2     1  UNL1       -0.2738
     20 N         -21.0019   -4.0164  -26.2087 N.am    1  UNL1       -0.3037
     21 C         -20.6957   -4.3596  -24.8133 C.3     1  UNL1        0.0888
     22 C         -19.1683   -4.2128  -24.5929 C.3     1  UNL1       -0.0160
     23 C         -18.3419   -5.2551  -25.3880 C.3     1  UNL1        0.0390
     24 C         -18.6624   -6.7184  -25.0396 C.3     1  UNL1       -0.0262
     25 C         -17.3202   -7.4590  -25.0244 C.3     1  UNL1        0.0123
     26 N         -16.3365   -6.4048  -24.9292 N.am    1  UNL1       -0.3151
     27 C         -16.8408   -5.1936  -25.1397 C.2     1  UNL1        0.2162
     28 O         -16.1847   -4.1607  -25.1780 O.2     1  UNL1       -0.2755
     29 C         -21.5514   -3.5363  -23.8216 C.2     1  UNL1        0.2079
     30 O         -21.0745   -2.9677  -22.8404 O.2     1  UNL1       -0.2879
     31 C         -23.0200   -3.4472  -24.0767 C.ar    1  UNL1        0.1465
     32 N         -23.8129   -2.3751  -23.9097 N.ar    1  UNL1       -0.2360
     33 C         -25.1103   -2.6790  -24.3357 C.ar    1  UNL1        0.0790
     34 C         -26.2270   -1.8173  -24.4314 C.ar    1  UNL1       -0.0352
     35 C         -27.4451   -2.2794  -24.9709 C.ar    1  UNL1       -0.0597
     36 C         -27.6128   -3.6121  -25.3619 C.ar    1  UNL1       -0.0606
     37 C         -26.5373   -4.4972  -25.2441 C.ar    1  UNL1       -0.0459
     38 C         -25.3062   -4.0239  -24.7652 C.ar    1  UNL1        0.0396
     39 S         -23.8233   -4.9185  -24.6251 S.2     1  UNL1       -0.0643
     40 H         -22.2363   -1.5747  -30.0271 H       1  UNL1        0.0232
     41 H         -23.2584   -1.6481  -31.4537 H       1  UNL1        0.0232
     42 H         -23.9860   -1.5252  -29.8598 H       1  UNL1        0.0232
     43 H         -22.3906   -3.8670  -30.9558 H       1  UNL1        0.0296
     44 H         -24.4065   -5.1432  -31.0979 H       1  UNL1        0.0232
     45 H         -25.3343   -3.9090  -30.2687 H       1  UNL1        0.0232
     46 H         -24.6952   -3.6159  -31.9015 H       1  UNL1        0.0232
     47 H         -23.6788   -4.8658  -28.6943 H       1  UNL1        0.0290
     48 H         -23.3348   -3.2523  -28.1686 H       1  UNL1        0.0290
     49 H         -20.8908   -3.6210  -28.7544 H       1  UNL1        0.0595
     50 H         -22.0056   -6.0695  -29.8804 H       1  UNL1        0.1499
     51 H         -17.8002   -7.1734  -30.5740 H       1  UNL1        0.1675
     52 H         -16.7928   -9.3150  -32.3541 H       1  UNL1        0.0639
     53 H         -17.6517  -11.1232  -33.8481 H       1  UNL1        0.0618
     54 H         -20.1009  -11.5016  -34.0556 H       1  UNL1        0.0618
     55 H         -21.7086  -10.0771  -32.8019 H       1  UNL1        0.0639
     56 H         -20.7596   -3.0873  -26.5246 H       1  UNL1        0.1495
     57 H         -20.9448   -5.4001  -24.6097 H       1  UNL1        0.0582
     58 H         -18.9401   -4.3170  -23.5338 H       1  UNL1        0.0295
     59 H         -18.8463   -3.2081  -24.8697 H       1  UNL1        0.0295
     60 H         -18.4808   -5.1008  -26.4586 H       1  UNL1        0.0395
     61 H         -19.3639   -7.1667  -25.7447 H       1  UNL1        0.0288
     62 H         -19.1121   -6.7813  -24.0505 H       1  UNL1        0.0288
     63 H         -17.1599   -8.0121  -25.9512 H       1  UNL1        0.0462
     64 H         -17.2422   -8.1523  -24.1863 H       1  UNL1        0.0462
     65 H         -15.3489   -6.5920  -24.8065 H       1  UNL1        0.1487
     66 H         -26.1515   -0.7870  -24.1296 H       1  UNL1        0.0639
     67 H         -28.2932   -1.6307  -25.0557 H       1  UNL1        0.0618
     68 H         -28.5617   -3.9488  -25.7540 H       1  UNL1        0.0618
     69 H         -26.6432   -5.5267  -25.5541 H       1  UNL1        0.0629
@<TRIPOS>BOND
     1     1     2    1
     2     1    40    1
     3     1    41    1
     4     1    42    1
     5     2     3    1
     6     2     4    1
     7     2    43    1
     8     3    44    1
     9     3    45    1
    10     3    46    1
    11     4     5    1
    12     4    47    1
    13     4    48    1
    14     5     6    1
    15     5    18    1
    16     5    49    1
    17     6     7   am
    18     6    50    1
    19     7     8    2
    20     7     9    1
    21     9    17   ar
    22     9    10   ar
    23    10    11   ar
    24    10    51    1
    25    11    16   ar
    26    11    12   ar
    27    12    13   ar
    28    12    52    1
    29    13    14   ar
    30    13    53    1
    31    14    15   ar
    32    14    54    1
    33    15    16   ar
    34    15    55    1
    35    16    17   ar
    36    18    19    2
    37    18    20   am
    38    20    21    1
    39    20    56    1
    40    21    22    1
    41    21    29    1
    42    21    57    1
    43    22    23    1
    44    22    58    1
    45    22    59    1
    46    23    27    1
    47    23    24    1
    48    23    60    1
    49    24    25    1
    50    24    61    1
    51    24    62    1
    52    25    26    1
    53    25    63    1
    54    25    64    1
    55    26    27   am
    56    26    65    1
    57    27    28    2
    58    29    30    2
    59    29    31    1
    60    31    39   ar
    61    31    32   ar
    62    32    33   ar
    63    33    38   ar
    64    33    34   ar
    65    34    35   ar
    66    34    66    1
    67    35    36   ar
    68    35    67    1
    69    36    37   ar
    70    36    68    1
    71    37    38   ar
    72    37    69    1
    73    38    39   ar
