@<TRIPOS>MOLECULE
*****
 82 83 0 0 0
SMALL
GASTEIGER
****
Schrodinger Suite 2019-4.
@<TRIPOS>ATOM
      1 C         -24.5444   -3.4332  -20.8816 C.3     1  UNL1        0.0820
      2 O         -23.7500   -3.9228  -21.9262 O.3     1  UNL1       -0.4649
      3 C         -22.7061   -3.2276  -22.3544 C.2     1  UNL1        0.3314
      4 O         -22.2812   -2.1893  -21.8449 O.2     1  UNL1       -0.2456
      5 C         -22.1217   -3.9126  -23.4997 C.2     1  UNL1        0.0203
      6 C         -20.9913   -3.4950  -24.0772 C.2     1  UNL1       -0.0572
      7 C         -20.3509   -4.2263  -25.2288 C.3     1  UNL1        0.0427
      8 C         -18.8228   -4.1411  -25.1274 C.3     1  UNL1       -0.0197
      9 C         -18.1051   -5.2559  -25.9036 C.3     1  UNL1        0.0389
     10 C         -18.4759   -6.6818  -25.4516 C.3     1  UNL1       -0.0262
     11 C         -17.1621   -7.4681  -25.4187 C.3     1  UNL1        0.0123
     12 N         -16.1422   -6.4461  -25.3934 N.am    1  UNL1       -0.3151
     13 C         -16.6060   -5.2314  -25.6640 C.2     1  UNL1        0.2162
     14 O         -15.9260   -4.2143  -25.7333 O.2     1  UNL1       -0.2755
     15 N         -20.8184   -3.7535  -26.5342 N.am    1  UNL1       -0.3075
     16 C         -21.5209   -4.5050  -27.3990 C.2     1  UNL1        0.2338
     17 O         -21.9820   -5.6105  -27.1071 O.2     1  UNL1       -0.2738
     18 C         -21.7014   -3.9591  -28.8273 C.3     1  UNL1        0.0996
     19 C         -23.1484   -3.4591  -29.0180 C.3     1  UNL1       -0.0236
     20 C         -23.4499   -2.8638  -30.4145 C.3     1  UNL1       -0.0446
     21 C         -22.8588   -1.4630  -30.6125 C.3     1  UNL1       -0.0626
     22 C         -24.9525   -2.8210  -30.6651 C.3     1  UNL1       -0.0626
     23 N         -21.4380   -5.0292  -29.7871 N.am    1  UNL1       -0.3025
     24 C         -20.2244   -5.5237  -30.0705 C.2     1  UNL1        0.2343
     25 O         -19.1872   -5.0858  -29.5808 O.2     1  UNL1       -0.2738
     26 C         -20.1771   -6.7475  -30.9843 C.3     1  UNL1        0.1048
     27 N         -19.3791   -6.4299  -32.1629 N.am    1  UNL1       -0.2696
     28 C         -19.8852   -6.4400  -33.4458 C.2     1  UNL1        0.4012
     29 O         -21.0553   -6.6590  -33.7553 O.2     1  UNL1       -0.2265
     30 O         -18.8971   -6.1718  -34.3111 O.3     1  UNL1       -0.4456
     31 C         -19.1589   -6.1582  -35.7077 C.3     1  UNL1        0.1191
     32 C         -19.1327   -7.5435  -36.3311 C.ar    1  UNL1       -0.0103
     33 C         -17.9383   -8.0309  -36.8956 C.ar    1  UNL1       -0.0554
     34 C         -17.8844   -9.3241  -37.4487 C.ar    1  UNL1       -0.0614
     35 C         -19.0338  -10.1368  -37.4447 C.ar    1  UNL1       -0.0617
     36 C         -20.2373   -9.6499  -36.8968 C.ar    1  UNL1       -0.0614
     37 C         -20.2859   -8.3563  -36.3426 C.ar    1  UNL1       -0.0554
     38 C         -19.5884   -7.9799  -30.2512 C.3     1  UNL1       -0.0196
     39 C         -19.3964   -9.1883  -31.1838 C.3     1  UNL1       -0.0605
     40 C         -20.4906   -8.3794  -29.0733 C.3     1  UNL1       -0.0605
     41 H         -24.9761   -4.2702  -20.3326 H       1  UNL1        0.0661
     42 H         -23.9691   -2.8228  -20.1876 H       1  UNL1        0.0661
     43 H         -25.3621   -2.8328  -21.2814 H       1  UNL1        0.0661
     44 H         -22.6248   -4.7905  -23.8805 H       1  UNL1        0.0686
     45 H         -20.4769   -2.6285  -23.6974 H       1  UNL1        0.0593
     46 H         -20.6452   -5.2667  -25.0872 H       1  UNL1        0.0543
     47 H         -18.5271   -4.2058  -24.0785 H       1  UNL1        0.0293
     48 H         -18.4898   -3.1625  -25.4743 H       1  UNL1        0.0293
     49 H         -18.2721   -5.1474  -26.9764 H       1  UNL1        0.0395
     50 H         -19.2067   -7.1474  -26.1135 H       1  UNL1        0.0288
     51 H         -18.9036   -6.6676  -24.4483 H       1  UNL1        0.0288
     52 H         -17.0327   -8.0708  -26.3178 H       1  UNL1        0.0462
     53 H         -17.0932   -8.1208  -24.5481 H       1  UNL1        0.0462
     54 H         -15.1610   -6.6585  -25.2570 H       1  UNL1        0.1487
     55 H         -20.5063   -2.8413  -26.8370 H       1  UNL1        0.1493
     56 H         -20.9953   -3.1557  -29.0081 H       1  UNL1        0.0594
     57 H         -23.3819   -2.7157  -28.2565 H       1  UNL1        0.0290
     58 H         -23.8297   -4.2905  -28.8321 H       1  UNL1        0.0290
     59 H         -23.0269   -3.5104  -31.1842 H       1  UNL1        0.0296
     60 H         -23.1498   -1.0502  -31.5770 H       1  UNL1        0.0232
     61 H         -23.2001   -0.7716  -29.8433 H       1  UNL1        0.0232
     62 H         -21.7732   -1.4789  -30.5866 H       1  UNL1        0.0232
     63 H         -25.1821   -2.3767  -31.6348 H       1  UNL1        0.0232
     64 H         -25.3414   -3.8348  -30.6691 H       1  UNL1        0.0232
     65 H         -25.4740   -2.2526  -29.8952 H       1  UNL1        0.0232
     66 H         -22.2430   -5.4660  -30.2111 H       1  UNL1        0.1495
     67 H         -21.2001   -6.9879  -31.2823 H       1  UNL1        0.0598
     68 H         -18.3963   -6.2159  -32.0522 H       1  UNL1        0.1528
     69 H         -18.3759   -5.5612  -36.1724 H       1  UNL1        0.0749
     70 H         -20.1047   -5.6620  -35.9268 H       1  UNL1        0.0749
     71 H         -17.0469   -7.4270  -36.8758 H       1  UNL1        0.0621
     72 H         -16.9621   -9.6925  -37.8734 H       1  UNL1        0.0618
     73 H         -18.9955  -11.1276  -37.8732 H       1  UNL1        0.0618
     74 H         -21.1270  -10.2624  -36.9117 H       1  UNL1        0.0618
     75 H         -21.2148   -7.9870  -35.9365 H       1  UNL1        0.0621
     76 H         -18.6051   -7.7252  -29.8515 H       1  UNL1        0.0318
     77 H         -19.0349  -10.0567  -30.6327 H       1  UNL1        0.0233
     78 H         -20.3366   -9.4673  -31.6603 H       1  UNL1        0.0233
     79 H         -18.6681   -8.9854  -31.9682 H       1  UNL1        0.0233
     80 H         -20.4584   -7.6442  -28.2700 H       1  UNL1        0.0233
     81 H         -21.5280   -8.4847  -29.3937 H       1  UNL1        0.0233
     82 H         -20.1985   -9.3347  -28.6467 H       1  UNL1        0.0233
@<TRIPOS>BOND
     1     1     2    1
     2     1    41    1
     3     1    42    1
     4     1    43    1
     5     2     3    1
     6     3     4    2
     7     3     5    1
     8     5     6    2
     9     5    44    1
    10     6     7    1
    11     6    45    1
    12     7     8    1
    13     7    15    1
    14     7    46    1
    15     8     9    1
    16     8    47    1
    17     8    48    1
    18     9    13    1
    19     9    10    1
    20     9    49    1
    21    10    11    1
    22    10    50    1
    23    10    51    1
    24    11    12    1
    25    11    52    1
    26    11    53    1
    27    12    13   am
    28    12    54    1
    29    13    14    2
    30    15    16   am
    31    15    55    1
    32    16    17    2
    33    16    18    1
    34    18    19    1
    35    18    23    1
    36    18    56    1
    37    19    20    1
    38    19    57    1
    39    19    58    1
    40    20    21    1
    41    20    22    1
    42    20    59    1
    43    21    60    1
    44    21    61    1
    45    21    62    1
    46    22    63    1
    47    22    64    1
    48    22    65    1
    49    23    24   am
    50    23    66    1
    51    24    25    2
    52    24    26    1
    53    26    27    1
    54    26    38    1
    55    26    67    1
    56    27    28   am
    57    27    68    1
    58    28    29    2
    59    28    30    1
    60    30    31    1
    61    31    32    1
    62    31    69    1
    63    31    70    1
    64    32    37   ar
    65    32    33   ar
    66    33    34   ar
    67    33    71    1
    68    34    35   ar
    69    34    72    1
    70    35    36   ar
    71    35    73    1
    72    36    37   ar
    73    36    74    1
    74    37    75    1
    75    38    39    1
    76    38    40    1
    77    38    76    1
    78    39    77    1
    79    39    78    1
    80    39    79    1
    81    40    80    1
    82    40    81    1
    83    40    82    1
