@<TRIPOS>MOLECULE
*****
 59 61 0 0 0
SMALL
GASTEIGER
****
Schrodinger Suite 2019-4.
@<TRIPOS>ATOM
      1 C         -21.7412   -3.7902  -23.7576 C.2     1  UNK1        0.1404
      2 O         -21.3344   -3.3886  -22.6680 O.2     1  UNK1       -0.2991
      3 C         -20.9028   -4.6400  -24.6904 C.3     1  UNK1        0.0791
      4 C         -19.3762   -4.5248  -24.4457 C.3     1  UNK1       -0.0167
      5 C         -18.5553   -5.5450  -25.2815 C.3     1  UNK1        0.0390
      6 C         -18.7105   -6.9891  -24.8265 C.3     1  UNK1       -0.0262
      7 C         -17.3500   -7.6104  -25.0530 C.3     1  UNK1        0.0123
      8 N         -16.4683   -6.4583  -24.9600 N.am    1  UNK1       -0.3151
      9 C         -17.0506   -5.2708  -25.1869 C.2     1  UNK1        0.2162
     10 O         -16.4959   -4.1897  -25.3561 O.2     1  UNK1       -0.2755
     11 N         -21.2719   -4.2072  -26.0388 N.am    1  UNK1       -0.3044
     12 C         -21.7402   -5.0196  -27.0008 C.2     1  UNK1        0.2342
     13 O         -22.0860   -6.1888  -26.8132 O.2     1  UNK1       -0.2738
     14 C         -21.8319   -4.4075  -28.4091 C.3     1  UNK1        0.1036
     15 C         -23.2442   -3.8311  -28.7024 C.3     1  UNK1       -0.0006
     16 C         -23.3294   -3.1869  -30.0742 C.ar    1  UNK1       -0.0451
     17 C         -22.8083   -1.8912  -30.2504 C.ar    1  UNK1       -0.0585
     18 C         -22.5984   -1.3994  -31.5298 C.ar    1  UNK1       -0.0615
     19 C         -22.8893   -2.1891  -32.6348 C.ar    1  UNK1       -0.0617
     20 C         -23.4271   -3.4588  -32.4809 C.ar    1  UNK1       -0.0615
     21 C         -23.6438   -3.9685  -31.2077 C.ar    1  UNK1       -0.0585
     22 N         -21.4867   -5.3811  -29.4490 N.am    1  UNK1       -0.3002
     23 C         -20.2643   -5.8414  -29.7474 C.2     0  UNK0        0.2375
     24 O         -19.2365   -5.4894  -29.1656 O.2     0  UNK0       -0.2708
     25 C         -20.2973   -6.7743  -30.8471 C.2     0  UNK0        0.0007
     26 C         -19.1957   -7.3914  -31.3298 C.2     0  UNK0       -0.0497
     27 C         -19.1784   -8.3315  -32.4703 C.ar    0  UNK0       -0.0238
     28 C         -20.2534   -8.4411  -33.3669 C.ar    0  UNK0       -0.0545
     29 C         -20.2071   -9.3408  -34.4322 C.ar    0  UNK0       -0.0602
     30 C         -19.0905  -10.1562  -34.6060 C.ar    0  UNK0       -0.0477
     31 C         -18.0220  -10.0664  -33.7152 C.ar    0  UNK0        0.0184
     32 BR        -16.5160  -11.2028  -33.9362 Br      0  UNK0       -0.0503
     33 C         -18.0607   -9.1563  -32.6586 C.ar    0  UNK0       -0.0406
     34 H         -22.7576   -3.5808  -24.0974 H       1  UNK1        0.1046
     35 H         -21.2038   -5.6768  -24.5181 H       1  UNK1        0.0574
     36 H         -19.1546   -4.6653  -23.3849 H       1  UNK1        0.0294
     37 H         -19.0576   -3.5088  -24.6836 H       1  UNK1        0.0294
     38 H         -18.8044   -5.4517  -26.3394 H       1  UNK1        0.0395
     39 H         -19.5138   -7.5268  -25.3341 H       1  UNK1        0.0288
     40 H         -18.9199   -7.0193  -23.7570 H       1  UNK1        0.0288
     41 H         -17.2565   -8.0750  -26.0364 H       1  UNK1        0.0462
     42 H         -17.1061   -8.3585  -24.2979 H       1  UNK1        0.0462
     43 H         -15.4612   -6.5698  -24.9796 H       1  UNK1        0.1487
     44 H         -20.9825   -3.2721  -26.2963 H       1  UNK1        0.1494
     45 H         -21.1202   -3.5798  -28.4801 H       1  UNK1        0.0598
     46 H         -23.5016   -3.0750  -27.9573 H       1  UNK1        0.0336
     47 H         -24.0055   -4.6099  -28.6282 H       1  UNK1        0.0336
     48 H         -22.5175   -1.2998  -29.3928 H       1  UNK1        0.0620
     49 H         -22.1696   -0.4168  -31.6610 H       1  UNK1        0.0618
     50 H         -22.6890   -1.8096  -33.6244 H       1  UNK1        0.0618
     51 H         -23.6449   -4.0569  -33.3525 H       1  UNK1        0.0618
     52 H         -24.0055   -4.9801  -31.0931 H       1  UNK1        0.0620
     53 H         -22.2727   -5.7479  -29.9625 H       1  UNK1        0.1498
     54 H         -21.2671   -6.9671  -31.2814 H       0  UNK0        0.0669
     55 H         -18.2351   -7.1912  -30.8720 H       0  UNK0        0.0625
     56 H         -21.1329   -7.8236  -33.2598 H       0  UNK0        0.0623
     57 H         -21.0318   -9.4025  -35.1244 H       0  UNK0        0.0618
     58 H         -19.0527  -10.8512  -35.4284 H       0  UNK0        0.0629
     59 H         -17.2198   -9.0991  -31.9812 H       0  UNK0        0.0634
@<TRIPOS>BOND
     1     1     2    2
     2     1     3    1
     3     1    34    1
     4     3     4    1
     5     3    11    1
     6     3    35    1
     7     4     5    1
     8     4    36    1
     9     4    37    1
    10     5     9    1
    11     5     6    1
    12     5    38    1
    13     6     7    1
    14     6    39    1
    15     6    40    1
    16     7     8    1
    17     7    41    1
    18     7    42    1
    19     8     9   am
    20     8    43    1
    21     9    10    2
    22    11    12   am
    23    11    44    1
    24    12    13    2
    25    12    14    1
    26    14    15    1
    27    14    22    1
    28    14    45    1
    29    15    16    1
    30    15    46    1
    31    15    47    1
    32    16    21   ar
    33    16    17   ar
    34    17    18   ar
    35    17    48    1
    36    18    19   ar
    37    18    49    1
    38    19    20   ar
    39    19    50    1
    40    20    21   ar
    41    20    51    1
    42    21    52    1
    43    22    23   am
    44    22    53    1
    45    23    24    2
    46    23    25    1
    47    25    26    2
    48    25    54    1
    49    26    27    1
    50    26    55    1
    51    27    33   ar
    52    27    28   ar
    53    28    29   ar
    54    28    56    1
    55    29    30   ar
    56    29    57    1
    57    30    31   ar
    58    30    58    1
    59    31    32    1
    60    31    33   ar
    61    33    59    1
