@<TRIPOS>MOLECULE
*****
 80 80 0 0 0
SMALL
GASTEIGER
****
Schrodinger Suite 2019-4.
@<TRIPOS>ATOM
      1 C         -31.9324  -11.5502  -24.0157 C.3     0  UNK0        0.0122
      2 C         -31.4729  -10.6782  -25.1754 C.2     0  UNK0        0.2106
      3 O         -31.8799  -10.9229  -26.3078 O.2     0  UNK0       -0.2761
      4 N         -30.6535   -9.6569  -24.8674 N.am    1  SER1       -0.3023
      5 CA        -30.2726   -8.5568  -25.7526 C.3     1  SER1        0.1225
      6 CB        -31.1805   -7.3510  -25.4771 C.3     1  SER1        0.0711
      7 OG        -32.5133   -7.6811  -25.8173 O.3     1  SER1       -0.3927
      8 C         -28.7812   -8.2397  -25.6303 C.2     1  SER1        0.2362
      9 O         -28.3834   -7.4968  -24.7344 O.2     1  SER1       -0.2737
     10 N         -27.9670   -8.8168  -26.5274 N.am    2  ALA2       -0.3027
     11 CA        -26.5114   -8.7373  -26.5263 C.3     2  ALA2        0.0966
     12 CB        -25.9579  -10.1660  -26.6701 C.3     2  ALA2       -0.0381
     13 C         -26.0218   -7.8717  -27.6930 C.2     2  ALA2        0.2337
     14 O         -26.0054   -8.3110  -28.8452 O.2     2  ALA2       -0.2738
     15 N         -25.5740   -6.6506  -27.3633 N.am    3  VAL3       -0.3022
     16 CA        -24.7735   -5.7977  -28.2359 C.3     3  VAL3        0.1017
     17 C         -23.2959   -6.1162  -27.9861 C.2     3  VAL3        0.2342
     18 O         -22.8936   -6.5295  -26.8952 O.2     3  VAL3       -0.2738
     19 N         -22.4840   -5.8525  -29.0074 N.am    4  LEU4       -0.3025
     20 CA        -21.0385   -5.8479  -28.9354 C.3     4  LEU4        0.0996
     21 CB        -20.5895   -5.8591  -30.4041 C.3     4  LEU4       -0.0236
     22 CG        -19.0900   -6.0204  -30.6399 C.3     4  LEU4       -0.0446
     23 CD1       -18.8430   -6.0582  -32.1592 C.3     4  LEU4       -0.0626
     24 CD2       -18.5543   -7.2658  -29.9049 C.3     4  LEU4       -0.0626
     25 C         -20.6217   -4.5559  -28.2147 C.2     4  LEU4        0.2339
     26 O         -20.9718   -3.4770  -28.6812 O.2     4  LEU4       -0.2738
     27 N         -19.9671   -4.6833  -27.0479 N.am    5  HIS5       -0.3041
     28 CA        -19.7466   -3.6107  -26.0699 C.3     5  HIS5        0.0838
     29 C         -18.5902   -2.7080  -26.4852 C.2     5  HIS5        0.1408
     30 O         -17.5371   -3.1254  -26.9575 O.2     5  HIS5       -0.2991
     31 CB        -19.3877   -4.2318  -24.7005 C.3     5  HIS5        0.0141
     32 CG        -18.1701   -5.1294  -24.7084 C.ar    5  HIS5        0.0375
     33 CD2       -18.0556   -6.4921  -24.8666 C.ar    5  HIS5        0.0485
     34 NE2       -16.7087   -6.8431  -24.9611 N.ar    5  HIS5       -0.2440
     35 CE1       -16.0632   -5.6892  -24.8534 C.ar    5  HIS5        0.0935
     36 ND1       -16.8704   -4.6514  -24.6454 N.ar    5  HIS5       -0.3481
     37 CB        -25.0374   -4.2993  -27.9067 C.3     3  VAL3       -0.0197
     38 CG1       -24.5683   -3.3654  -29.0416 C.3     3  VAL3       -0.0605
     39 CG2       -24.4523   -3.8182  -26.5612 C.3     3  VAL3       -0.0605
     40 H         -32.1493  -10.9422  -23.1372 H       0  UNK0        0.0322
     41 H         -32.8369  -12.0980  -24.2788 H       0  UNK0        0.0322
     42 H         -31.1615  -12.2749  -23.7568 H       0  UNK0        0.0322
     43 H         -30.3526   -9.5738  -23.9070 H       1  SER1        0.1495
     44 HA        -30.4273   -8.8444  -26.7819 H       1  SER1        0.0618
     45 HB1       -30.8474   -6.4898  -26.0549 H       1  SER1        0.0580
     46 HB2       -31.1334   -7.0576  -24.4316 H       1  SER1        0.0580
     47 H         -32.7804   -8.4198  -25.2905 H       1  SER1        0.2095
     48 H         -28.3897   -9.3774  -27.2575 H       2  ALA2        0.1495
     49 HA        -26.1416   -8.3239  -25.5855 H       2  ALA2        0.0592
     50 HB1       -24.8676  -10.1632  -26.6922 H       2  ALA2        0.0252
     51 HB2       -26.2636  -10.7880  -25.8281 H       2  ALA2        0.0252
     52 HB3       -26.3096  -10.6540  -27.5811 H       2  ALA2        0.0252
     53 H         -25.6593   -6.3560  -26.4006 H       3  VAL3        0.1495
     54 HA        -25.0266   -5.9942  -29.2795 H       3  VAL3        0.0597
     55 H         -22.8929   -5.4977  -29.8592 H       4  LEU4        0.1495
     56 HA        -20.6983   -6.7332  -28.3980 H       4  LEU4        0.0594
     57 HB1       -20.9350   -4.9499  -30.9019 H       4  LEU4        0.0290
     58 HB2       -21.0946   -6.6824  -30.9147 H       4  LEU4        0.0290
     59 HG        -18.6042   -5.1397  -30.2354 H       4  LEU4        0.0296
     60 HD11      -17.9221   -5.5601  -32.4444 H       4  LEU4        0.0232
     61 HD12      -18.8145   -7.0805  -32.5355 H       4  LEU4        0.0232
     62 HD13      -19.6278   -5.5384  -32.7043 H       4  LEU4        0.0232
     63 HD21      -17.5569   -7.5636  -30.2049 H       4  LEU4        0.0232
     64 HD22      -18.5156   -7.1107  -28.8264 H       4  LEU4        0.0232
     65 HD23      -19.1980   -8.1242  -30.0985 H       4  LEU4        0.0232
     66 H         -19.7033   -5.6143  -26.7590 H       5  HIS5        0.1494
     67 HA        -20.6605   -3.0262  -25.9788 H       5  HIS5        0.0578
     68 H         -18.7825   -1.6495  -26.3201 H       5  HIS5        0.1046
     69 HB1       -20.2325   -4.8273  -24.3524 H       5  HIS5        0.0350
     70 HB2       -19.2469   -3.4534  -23.9476 H       5  HIS5        0.0350
     71 HD2       -18.8305   -7.2380  -24.9751 H       5  HIS5        0.0848
     72 HE1       -14.9922   -5.5924  -24.9214 H       5  HIS5        0.1027
     73 HD1       -16.5878   -3.6815  -24.5777 H       5  HIS5        0.1665
     74 HB        -26.1196   -4.1856  -27.8352 H       3  VAL3        0.0318
     75 HG11      -25.0118   -2.3751  -28.9425 H       3  VAL3        0.0233
     76 HG12      -23.4884   -3.2305  -29.0397 H       3  VAL3        0.0233
     77 HG13      -24.8402   -3.7516  -30.0226 H       3  VAL3        0.0233
     78 HG21      -24.9768   -2.9404  -26.1967 H       3  VAL3        0.0233
     79 HG22      -24.5302   -4.5769  -25.7842 H       3  VAL3        0.0233
     80 HG23      -23.3966   -3.5567  -26.6443 H       3  VAL3        0.0233
@<TRIPOS>BOND
     1     1     2    1
     2     1    40    1
     3     1    41    1
     4     1    42    1
     5     2     3    2
     6     2     4   am
     7     4     5    1
     8     4    43    1
     9     5     6    1
    10     5     8    1
    11     5    44    1
    12     6     7    1
    13     6    45    1
    14     6    46    1
    15     7    47    1
    16     8     9    2
    17     8    10   am
    18    10    11    1
    19    10    48    1
    20    11    12    1
    21    11    13    1
    22    11    49    1
    23    12    50    1
    24    12    51    1
    25    12    52    1
    26    13    14    2
    27    13    15   am
    28    15    16    1
    29    15    53    1
    30    16    17    1
    31    16    37    1
    32    16    54    1
    33    17    18    2
    34    17    19   am
    35    19    20    1
    36    19    55    1
    37    20    21    1
    38    20    25    1
    39    20    56    1
    40    21    22    1
    41    21    57    1
    42    21    58    1
    43    22    23    1
    44    22    24    1
    45    22    59    1
    46    23    60    1
    47    23    61    1
    48    23    62    1
    49    24    63    1
    50    24    64    1
    51    24    65    1
    52    25    26    2
    53    25    27   am
    54    27    28    1
    55    27    66    1
    56    28    29    1
    57    28    31    1
    58    28    67    1
    59    29    30    2
    60    29    68    1
    61    31    32    1
    62    31    69    1
    63    31    70    1
    64    32    36   ar
    65    32    33   ar
    66    33    34   ar
    67    33    71    1
    68    34    35   ar
    69    35    36   ar
    70    35    72    1
    71    36    73    1
    72    37    38    1
    73    37    39    1
    74    37    74    1
    75    38    75    1
    76    38    76    1
    77    38    77    1
    78    39    78    1
    79    39    79    1
    80    39    80    1
