@<TRIPOS>MOLECULE
*****
 30 31 0 0 0
SMALL
GASTEIGER
****
Schrodinger Suite 2019-4.
@<TRIPOS>ATOM
      1 O         -22.6914   -2.2632  -31.9506 O.2     1  UNL1        0.0415
      2 N         -22.9977   -3.4488  -32.0229 N.pl3   1  UNL1        0.0816
      3 O         -24.1275   -3.8403  -32.2704 O.co2   1  UNL1       -0.5760
      4 C         -21.9110   -4.4382  -31.8985 C.ar    1  UNL1        0.2986
      5 C         -20.8693   -4.3437  -32.8312 C.ar    1  UNL1        0.0292
      6 C         -19.7787   -5.2190  -32.8070 C.ar    1  UNL1        0.0613
      7 C         -18.6831   -5.1293  -33.8701 C.3     1  UNL1        0.4176
      8 F         -17.7728   -4.2420  -33.4724 F       1  UNL1       -0.1659
      9 F         -18.0789   -6.3036  -34.0640 F       1  UNL1       -0.1659
     10 F         -19.1802   -4.7408  -35.0453 F       1  UNL1       -0.1659
     11 C         -19.7218   -6.1918  -31.8082 C.ar    1  UNL1       -0.0479
     12 C         -20.7487   -6.3037  -30.8745 C.ar    1  UNL1       -0.0293
     13 C         -21.8653   -5.4539  -30.9101 C.ar    1  UNL1        0.1702
     14 S         -23.1828   -5.7959  -29.6987 S.O2    1  UNL1        0.0315
     15 O         -24.4759   -5.6297  -30.3546 O.2     1  UNL1       -0.1641
     16 O         -22.8750   -7.0849  -29.0706 O.2     1  UNL1       -0.1641
     17 C         -23.1581   -4.5898  -28.3741 C.ar    1  UNL1        0.0939
     18 C         -22.7829   -3.2638  -28.5979 C.ar    1  UNL1       -0.0351
     19 C         -22.8769   -2.3407  -27.5625 C.ar    1  UNL1       -0.0416
     20 C         -23.3238   -2.7348  -26.3074 C.ar    1  UNL1        0.0411
     21 CL        -23.4540   -1.5679  -25.0403 Cl      1  UNL1       -0.0835
     22 C         -23.6709   -4.0618  -26.0712 C.ar    1  UNL1       -0.0416
     23 C         -23.5956   -4.9888  -27.1065 C.ar    1  UNL1       -0.0351
     24 H         -20.9224   -3.5797  -33.5946 H       1  UNL1        0.0691
     25 H         -18.8823   -6.8744  -31.7574 H       1  UNL1        0.0624
     26 H         -20.6726   -7.0838  -30.1319 H       1  UNL1        0.0639
     27 H         -22.4249   -2.9289  -29.5555 H       1  UNL1        0.0637
     28 H         -22.5793   -1.3175  -27.7361 H       1  UNL1        0.0633
     29 H         -24.0146   -4.3647  -25.0938 H       1  UNL1        0.0633
     30 H         -23.9011   -6.0077  -26.9251 H       1  UNL1        0.0637
@<TRIPOS>BOND
     1     1     2    2
     2     2     3    1
     3     2     4    1
     4     4    13   ar
     5     4     5   ar
     6     5     6   ar
     7     5    24    1
     8     6     7    1
     9     6    11   ar
    10     7     8    1
    11     7     9    1
    12     7    10    1
    13    11    12   ar
    14    11    25    1
    15    12    13   ar
    16    12    26    1
    17    13    14    1
    18    14    15    2
    19    14    16    2
    20    14    17    1
    21    17    23   ar
    22    17    18   ar
    23    18    19   ar
    24    18    27    1
    25    19    20   ar
    26    19    28    1
    27    20    21    1
    28    20    22   ar
    29    22    23   ar
    30    22    29    1
    31    23    30    1
