
                    3D
 Schrodinger Suite 2019-4.
 71 75  0  0  1  0            999 V2000
  -23.2773   -1.9659  -30.4033 C   0  0  0  0  0  0
  -23.2595   -3.4953  -30.2928 C   0  0  0  0  0  0
  -24.5106   -4.1163  -30.9196 C   0  0  0  0  0  0
  -23.0762   -3.9754  -28.8322 C   0  0  0  0  0  0
  -21.6390   -4.4278  -28.5124 C   0  0  2  0  0  0
  -21.3177   -5.5719  -29.3677 N   0  0  0  0  0  0
  -20.0811   -6.0248  -29.6088 C   0  0  0  0  0  0
  -19.0728   -5.5043  -29.1334 O   0  0  0  0  0  0
  -19.9867   -7.1893  -30.5103 C   0  0  0  0  0  0
  -20.9165   -7.9987  -31.1139 C   0  0  0  0  0  0
  -20.1922   -8.9549  -31.9068 C   0  0  0  0  0  0
  -20.5543  -10.0281  -32.7524 C   0  0  0  0  0  0
  -19.5741  -10.7862  -33.4271 C   0  0  0  0  0  0
  -19.9486  -11.8207  -34.2333 O   0  0  0  0  0  0
  -18.2064  -10.4814  -33.2741 C   0  0  0  0  0  0
  -17.8154   -9.4250  -32.4324 C   0  0  0  0  0  0
  -18.8021   -8.6852  -31.7583 C   0  0  0  0  0  0
  -18.7292   -7.6237  -30.8855 N   0  0  0  0  0  0
  -21.5658   -4.8734  -27.0453 C   0  0  0  0  0  0
  -22.0525   -5.9549  -26.7109 O   0  0  0  0  0  0
  -20.9384   -4.0583  -26.1807 N   0  0  0  0  0  0
  -20.6194   -4.4290  -24.7966 C   0  0  1  0  0  0
  -19.0940   -4.2723  -24.5946 C   0  0  0  0  0  0
  -18.2760   -5.3018  -25.4037 C   0  0  2  0  0  0
  -18.5897   -6.7657  -25.0553 C   0  0  0  0  0  0
  -17.2434   -7.4964  -25.0371 C   0  0  0  0  0  0
  -16.2671   -6.4354  -24.9341 N   0  0  0  0  0  0
  -16.7769   -5.2277  -25.1523 C   0  0  0  0  0  0
  -16.1293   -4.1880  -25.1895 O   0  0  0  0  0  0
  -21.4333   -3.5918  -23.7872 C   0  0  0  0  0  0
  -20.9214   -2.9558  -22.8667 O   0  0  0  0  0  0
  -22.9088   -3.5702  -23.9565 C   0  0  0  0  0  0
  -23.6366   -4.5549  -24.4904 N   0  0  0  0  0  0
  -24.9587   -4.1607  -24.6166 C   0  0  0  0  0  0
  -26.0117   -4.9148  -25.1764 C   0  0  0  0  0  0
  -27.2938   -4.3584  -25.3356 C   0  0  0  0  0  0
  -27.5371   -3.0317  -24.9435 C   0  0  0  0  0  0
  -26.5192   -2.2775  -24.3312 C   0  0  0  0  0  0
  -25.2478   -2.8440  -24.1630 C   0  0  0  0  0  0
  -23.8066   -2.1414  -23.4523 S   0  0  0  0  0  0
  -22.3606   -1.5286  -30.0110 H   0  0  0  0  0  0
  -23.3738   -1.6502  -31.4418 H   0  0  0  0  0  0
  -24.1112   -1.5371  -29.8506 H   0  0  0  0  0  0
  -22.4192   -3.8282  -30.9023 H   0  0  0  0  0  0
  -24.3584   -5.1756  -31.1211 H   0  0  0  0  0  0
  -25.3681   -4.0338  -30.2551 H   0  0  0  0  0  0
  -24.7508   -3.6460  -31.8736 H   0  0  0  0  0  0
  -23.7582   -4.8024  -28.6261 H   0  0  0  0  0  0
  -23.3778   -3.1861  -28.1420 H   0  0  0  0  0  0
  -20.9441   -3.6089  -28.6969 H   0  0  0  0  0  0
  -22.0980   -6.0697  -29.7742 H   0  0  0  0  0  0
  -21.9903   -7.9365  -31.0369 H   0  0  0  0  0  0
  -21.6015  -10.2600  -32.8811 H   0  0  0  0  0  0
  -20.8815  -11.9718  -34.2458 H   0  0  0  0  0  0
  -17.4580  -11.0600  -33.7961 H   0  0  0  0  0  0
  -16.7698   -9.1854  -32.3031 H   0  0  0  0  0  0
  -17.8833   -7.1470  -30.5969 H   0  0  0  0  0  0
  -20.5801   -3.1764  -26.5204 H   0  0  0  0  0  0
  -20.8777   -5.4701  -24.6040 H   0  0  0  0  0  0
  -18.8533   -4.3849  -23.5402 H   0  0  0  0  0  0
  -18.7741   -3.2669  -24.8665 H   0  0  0  0  0  0
  -18.4208   -5.1433  -26.4731 H   0  0  0  0  0  0
  -19.2885   -7.2167  -25.7606 H   0  0  0  0  0  0
  -19.0384   -6.8303  -24.0660 H   0  0  0  0  0  0
  -17.0755   -8.0434  -25.9660 H   0  0  0  0  0  0
  -17.1629   -8.1930  -24.2021 H   0  0  0  0  0  0
  -15.2785   -6.6163  -24.8061 H   0  0  0  0  0  0
  -25.8217   -5.9218  -25.5193 H   0  0  0  0  0  0
  -28.0839   -4.9381  -25.7902 H   0  0  0  0  0  0
  -28.5118   -2.5979  -25.1110 H   0  0  0  0  0  0
  -26.7062   -1.2640  -24.0114 H   0  0  0  0  0  0
  1  2  1  0  0  0
  1 41  1  0  0  0
  1 42  1  0  0  0
  1 43  1  0  0  0
  2  3  1  0  0  0
  2  4  1  0  0  0
  2 44  1  0  0  0
  3 45  1  0  0  0
  3 46  1  0  0  0
  3 47  1  0  0  0
  4  5  1  0  0  0
  4 48  1  0  0  0
  4 49  1  0  0  0
  5  6  1  0  0  0
  5 19  1  0  0  0
  5 50  1  0  0  0
  6  7  1  0  0  0
  6 51  1  0  0  0
  7  8  2  0  0  0
  7  9  1  0  0  0
  9 18  1  0  0  0
  9 10  2  0  0  0
 10 11  1  0  0  0
 10 52  1  0  0  0
 11 17  1  0  0  0
 11 12  2  0  0  0
 12 13  1  0  0  0
 12 53  1  0  0  0
 13 14  1  0  0  0
 13 15  2  0  0  0
 14 54  1  0  0  0
 15 16  1  0  0  0
 15 55  1  0  0  0
 16 17  2  0  0  0
 16 56  1  0  0  0
 17 18  1  0  0  0
 18 57  1  0  0  0
 19 20  2  0  0  0
 19 21  1  0  0  0
 21 22  1  0  0  0
 21 58  1  0  0  0
 22 23  1  0  0  0
 22 30  1  0  0  0
 22 59  1  0  0  0
 23 24  1  0  0  0
 23 60  1  0  0  0
 23 61  1  0  0  0
 24 28  1  0  0  0
 24 25  1  0  0  0
 24 62  1  0  0  0
 25 26  1  0  0  0
 25 63  1  0  0  0
 25 64  1  0  0  0
 26 27  1  0  0  0
 26 65  1  0  0  0
 26 66  1  0  0  0
 27 28  1  0  0  0
 27 67  1  0  0  0
 28 29  2  0  0  0
 30 31  2  0  0  0
 30 32  1  0  0  0
 32 40  1  0  0  0
 32 33  2  0  0  0
 33 34  1  0  0  0
 34 39  2  0  0  0
 34 35  1  0  0  0
 35 36  2  0  0  0
 35 68  1  0  0  0
 36 37  1  0  0  0
 36 69  1  0  0  0
 37 38  2  0  0  0
 37 70  1  0  0  0
 38 39  1  0  0  0
 38 71  1  0  0  0
 39 40  1  0  0  0
M  END
$$$$
