@<TRIPOS>MOLECULE
*****
 71 75 0 0 0
SMALL
GASTEIGER
****
Schrodinger Suite 2019-4.
@<TRIPOS>ATOM
      1 C         -23.2773   -1.9659  -30.4033 C.3     1  UNL1       -0.0626
      2 C         -23.2595   -3.4953  -30.2928 C.3     1  UNL1       -0.0446
      3 C         -24.5106   -4.1163  -30.9196 C.3     1  UNL1       -0.0626
      4 C         -23.0762   -3.9754  -28.8322 C.3     1  UNL1       -0.0236
      5 C         -21.6390   -4.4278  -28.5124 C.3     1  UNL1        0.0999
      6 N         -21.3177   -5.5719  -29.3677 N.am    1  UNL1       -0.2988
      7 C         -20.0811   -6.0248  -29.6088 C.2     1  UNL1        0.2610
      8 O         -19.0728   -5.5043  -29.1334 O.2     1  UNL1       -0.2686
      9 C         -19.9867   -7.1893  -30.5103 C.ar    1  UNL1        0.1028
     10 C         -20.9165   -7.9987  -31.1139 C.ar    1  UNL1       -0.0240
     11 C         -20.1922   -8.9549  -31.9068 C.ar    1  UNL1        0.0038
     12 C         -20.5543  -10.0281  -32.7524 C.ar    1  UNL1       -0.0110
     13 C         -19.5741  -10.7862  -33.4271 C.ar    1  UNL1        0.1175
     14 O         -19.9486  -11.8207  -34.2333 O.3     1  UNL1       -0.5067
     15 C         -18.2064  -10.4814  -33.2741 C.ar    1  UNL1       -0.0182
     16 C         -17.8154   -9.4250  -32.4324 C.ar    1  UNL1       -0.0343
     17 C         -18.8021   -8.6852  -31.7583 C.ar    1  UNL1        0.0472
     18 N         -18.7292   -7.6237  -30.8855 N.ar    1  UNL1       -0.3506
     19 C         -21.5658   -4.8734  -27.0453 C.2     1  UNL1        0.2339
     20 O         -22.0525   -5.9549  -26.7109 O.2     1  UNL1       -0.2738
     21 N         -20.9384   -4.0583  -26.1807 N.am    1  UNL1       -0.3037
     22 C         -20.6194   -4.4290  -24.7966 C.3     1  UNL1        0.0888
     23 C         -19.0940   -4.2723  -24.5946 C.3     1  UNL1       -0.0160
     24 C         -18.2760   -5.3018  -25.4037 C.3     1  UNL1        0.0390
     25 C         -18.5897   -6.7657  -25.0553 C.3     1  UNL1       -0.0262
     26 C         -17.2434   -7.4964  -25.0371 C.3     1  UNL1        0.0123
     27 N         -16.2671   -6.4354  -24.9341 N.am    1  UNL1       -0.3151
     28 C         -16.7769   -5.2277  -25.1523 C.2     1  UNL1        0.2162
     29 O         -16.1293   -4.1880  -25.1895 O.2     1  UNL1       -0.2755
     30 C         -21.4333   -3.5918  -23.7872 C.2     1  UNL1        0.2079
     31 O         -20.9214   -2.9558  -22.8667 O.2     1  UNL1       -0.2879
     32 C         -22.9088   -3.5702  -23.9565 C.ar    1  UNL1        0.1465
     33 N         -23.6366   -4.5549  -24.4904 N.ar    1  UNL1       -0.2360
     34 C         -24.9587   -4.1607  -24.6166 C.ar    1  UNL1        0.0790
     35 C         -26.0117   -4.9148  -25.1764 C.ar    1  UNL1       -0.0352
     36 C         -27.2938   -4.3584  -25.3356 C.ar    1  UNL1       -0.0597
     37 C         -27.5371   -3.0317  -24.9435 C.ar    1  UNL1       -0.0606
     38 C         -26.5192   -2.2775  -24.3312 C.ar    1  UNL1       -0.0459
     39 C         -25.2478   -2.8440  -24.1630 C.ar    1  UNL1        0.0396
     40 S         -23.8066   -2.1414  -23.4523 S.2     1  UNL1       -0.0643
     41 H         -22.3606   -1.5286  -30.0110 H       1  UNL1        0.0232
     42 H         -23.3738   -1.6502  -31.4418 H       1  UNL1        0.0232
     43 H         -24.1112   -1.5371  -29.8506 H       1  UNL1        0.0232
     44 H         -22.4192   -3.8282  -30.9023 H       1  UNL1        0.0296
     45 H         -24.3584   -5.1756  -31.1211 H       1  UNL1        0.0232
     46 H         -25.3681   -4.0338  -30.2551 H       1  UNL1        0.0232
     47 H         -24.7508   -3.6460  -31.8736 H       1  UNL1        0.0232
     48 H         -23.7582   -4.8024  -28.6261 H       1  UNL1        0.0290
     49 H         -23.3778   -3.1861  -28.1420 H       1  UNL1        0.0290
     50 H         -20.9441   -3.6089  -28.6969 H       1  UNL1        0.0595
     51 H         -22.0980   -6.0697  -29.7742 H       1  UNL1        0.1498
     52 H         -21.9903   -7.9365  -31.0369 H       1  UNL1        0.0646
     53 H         -21.6015  -10.2600  -32.8811 H       1  UNL1        0.0661
     54 H         -20.8815  -11.9718  -34.2458 H       1  UNL1        0.2921
     55 H         -17.4580  -11.0600  -33.7961 H       1  UNL1        0.0655
     56 H         -16.7698   -9.1854  -32.3031 H       1  UNL1        0.0639
     57 H         -17.8833   -7.1470  -30.5969 H       1  UNL1        0.1660
     58 H         -20.5801   -3.1764  -26.5204 H       1  UNL1        0.1495
     59 H         -20.8777   -5.4701  -24.6040 H       1  UNL1        0.0582
     60 H         -18.8533   -4.3849  -23.5402 H       1  UNL1        0.0295
     61 H         -18.7741   -3.2669  -24.8665 H       1  UNL1        0.0295
     62 H         -18.4208   -5.1433  -26.4731 H       1  UNL1        0.0395
     63 H         -19.2885   -7.2167  -25.7606 H       1  UNL1        0.0288
     64 H         -19.0384   -6.8303  -24.0660 H       1  UNL1        0.0288
     65 H         -17.0755   -8.0434  -25.9660 H       1  UNL1        0.0462
     66 H         -17.1629   -8.1930  -24.2021 H       1  UNL1        0.0462
     67 H         -15.2785   -6.6163  -24.8061 H       1  UNL1        0.1487
     68 H         -25.8217   -5.9218  -25.5193 H       1  UNL1        0.0639
     69 H         -28.0839   -4.9381  -25.7902 H       1  UNL1        0.0618
     70 H         -28.5118   -2.5979  -25.1110 H       1  UNL1        0.0618
     71 H         -26.7062   -1.2640  -24.0114 H       1  UNL1        0.0629
@<TRIPOS>BOND
     1     1     2    1
     2     1    41    1
     3     1    42    1
     4     1    43    1
     5     2     3    1
     6     2     4    1
     7     2    44    1
     8     3    45    1
     9     3    46    1
    10     3    47    1
    11     4     5    1
    12     4    48    1
    13     4    49    1
    14     5     6    1
    15     5    19    1
    16     5    50    1
    17     6     7   am
    18     6    51    1
    19     7     8    2
    20     7     9    1
    21     9    18   ar
    22     9    10   ar
    23    10    11   ar
    24    10    52    1
    25    11    17   ar
    26    11    12   ar
    27    12    13   ar
    28    12    53    1
    29    13    14    1
    30    13    15   ar
    31    14    54    1
    32    15    16   ar
    33    15    55    1
    34    16    17   ar
    35    16    56    1
    36    17    18   ar
    37    18    57    1
    38    19    20    2
    39    19    21   am
    40    21    22    1
    41    21    58    1
    42    22    23    1
    43    22    30    1
    44    22    59    1
    45    23    24    1
    46    23    60    1
    47    23    61    1
    48    24    28    1
    49    24    25    1
    50    24    62    1
    51    25    26    1
    52    25    63    1
    53    25    64    1
    54    26    27    1
    55    26    65    1
    56    26    66    1
    57    27    28   am
    58    27    67    1
    59    28    29    2
    60    30    31    2
    61    30    32    1
    62    32    40   ar
    63    32    33   ar
    64    33    34   ar
    65    34    39   ar
    66    34    35   ar
    67    35    36   ar
    68    35    68    1
    69    36    37   ar
    70    36    69    1
    71    37    38   ar
    72    37    70    1
    73    38    39   ar
    74    38    71    1
    75    39    40   ar
