@<TRIPOS>MOLECULE
*****
 70 73 0 0 0
SMALL
GASTEIGER
****
Schrodinger Suite 2019-4.
@<TRIPOS>ATOM
      1 O         -19.1571   -5.5807  -29.6570 O.2     1  UNL1       -0.2708
      2 C         -20.0491   -5.7876  -30.4856 C.2     1  UNL1        0.2375
      3 N         -21.2283   -5.1456  -30.4831 N.am    1  UNL1       -0.3002
      4 C         -21.6693   -4.1473  -29.5065 C.3     1  UNL1        0.1024
      5 C         -23.0353   -3.5485  -29.9171 C.3     1  UNL1       -0.0140
      6 C         -23.1371   -2.6989  -31.1668 C.3     1  UNL1       -0.0477
      7 C         -23.2847   -2.0606  -29.8055 C.3     1  UNL1       -0.0477
      8 C         -21.7091   -4.7253  -28.0742 C.2     1  UNL1        0.2342
      9 O         -22.4180   -5.7023  -27.8202 O.2     1  UNL1       -0.2738
     10 N         -20.9421   -4.1022  -27.1641 N.am    1  UNL1       -0.3036
     11 C         -20.8725   -4.4285  -25.7299 C.3     1  UNL1        0.0914
     12 C         -19.4093   -4.3116  -25.2169 C.3     1  UNL1       -0.0159
     13 C         -18.4832   -5.4334  -25.7749 C.3     1  UNL1        0.0390
     14 C         -18.7598   -6.8312  -25.2304 C.3     1  UNL1       -0.0262
     15 C         -17.3951   -7.4993  -25.2131 C.3     1  UNL1        0.0123
     16 N         -16.4827   -6.3690  -25.1180 N.am    1  UNL1       -0.3151
     17 C         -17.0058   -5.1761  -25.4483 C.2     1  UNL1        0.2162
     18 O         -16.4145   -4.1034  -25.5185 O.2     1  UNL1       -0.2755
     19 C         -21.8549   -3.4837  -25.0251 C.2     1  UNL1        0.2372
     20 O         -22.4002   -2.5030  -25.5421 O.2     1  UNL1       -0.2852
     21 C         -22.2238   -3.8478  -23.5442 C.2     1  UNL1        0.2817
     22 O         -21.3547   -4.1112  -22.7180 O.2     1  UNL1       -0.2670
     23 N         -23.5528   -3.8162  -23.3236 N.am    1  UNL1       -0.3048
     24 C         -24.1914   -4.1900  -22.0590 C.3     1  UNL1        0.0372
     25 C         -24.2489   -5.6897  -21.7555 C.ar    1  UNL1       -0.0303
     26 C         -24.4635   -6.0979  -20.4352 C.ar    1  UNL1       -0.0571
     27 C         -24.5210   -7.4540  -20.1200 C.ar    1  UNL1       -0.0615
     28 C         -24.3573   -8.4037  -21.1260 C.ar    1  UNL1       -0.0617
     29 C         -24.1278   -8.0096  -22.4426 C.ar    1  UNL1       -0.0615
     30 C         -24.0725   -6.6544  -22.7568 C.ar    1  UNL1       -0.0571
     31 C         -19.9379   -6.7370  -31.5656 C.2     1  UNL1        0.0007
     32 C         -18.8585   -7.5293  -31.7262 C.2     1  UNL1       -0.0497
     33 C         -18.6731   -8.5344  -32.7918 C.ar    1  UNL1       -0.0249
     34 C         -17.3780   -8.9958  -33.0506 C.ar    1  UNL1       -0.0546
     35 C         -17.1563   -9.9424  -34.0475 C.ar    1  UNL1       -0.0612
     36 C         -18.2272  -10.4215  -34.7963 C.ar    1  UNL1       -0.0617
     37 C         -19.5218   -9.9677  -34.5520 C.ar    1  UNL1       -0.0612
     38 C         -19.7455   -9.0271  -33.5494 C.ar    1  UNL1       -0.0546
     39 H         -21.9163   -5.3957  -31.1756 H       1  UNL1        0.1498
     40 H         -20.9264   -3.3472  -29.5442 H       1  UNL1        0.0597
     41 H         -23.8720   -4.2227  -29.7164 H       1  UNL1        0.0323
     42 H         -24.0226   -2.7932  -31.7975 H       1  UNL1        0.0269
     43 H         -22.2343   -2.4879  -31.7417 H       1  UNL1        0.0269
     44 H         -22.4869   -1.4029  -29.4564 H       1  UNL1        0.0269
     45 H         -24.2721   -1.7055  -29.5044 H       1  UNL1        0.0269
     46 H         -20.4131   -3.2901  -27.4526 H       1  UNL1        0.1495
     47 H         -21.2139   -5.4543  -25.5644 H       1  UNL1        0.0583
     48 H         -19.3598   -4.3466  -24.1284 H       1  UNL1        0.0295
     49 H         -19.0141   -3.3294  -25.4913 H       1  UNL1        0.0295
     50 H         -18.5464   -5.4353  -26.8648 H       1  UNL1        0.0395
     51 H         -19.4907   -7.3914  -25.8151 H       1  UNL1        0.0288
     52 H         -19.1453   -6.7748  -24.2106 H       1  UNL1        0.0288
     53 H         -17.1977   -8.0605  -26.1276 H       1  UNL1        0.0462
     54 H         -17.2806   -8.1719  -24.3623 H       1  UNL1        0.0462
     55 H         -15.4830   -6.5029  -24.9956 H       1  UNL1        0.1487
     56 H         -24.1781   -3.6368  -24.1059 H       1  UNL1        0.1494
     57 H         -25.2140   -3.8087  -22.0624 H       1  UNL1        0.0512
     58 H         -23.6868   -3.6763  -21.2373 H       1  UNL1        0.0512
     59 H         -24.5913   -5.3635  -19.6523 H       1  UNL1        0.0621
     60 H         -24.6916   -7.7690  -19.1012 H       1  UNL1        0.0618
     61 H         -24.3988   -9.4551  -20.8821 H       1  UNL1        0.0618
     62 H         -23.9945   -8.7517  -23.2158 H       1  UNL1        0.0618
     63 H         -23.8993   -6.3642  -23.7830 H       1  UNL1        0.0621
     64 H         -20.7715   -6.7886  -32.2523 H       1  UNL1        0.0669
     65 H         -18.0430   -7.4545  -31.0168 H       1  UNL1        0.0625
     66 H         -16.5376   -8.6245  -32.4808 H       1  UNL1        0.0623
     67 H         -16.1563  -10.3010  -34.2441 H       1  UNL1        0.0618
     68 H         -18.0549  -11.1479  -35.5765 H       1  UNL1        0.0618
     69 H         -20.3470  -10.3473  -35.1358 H       1  UNL1        0.0618
     70 H         -20.7572   -8.6982  -33.3625 H       1  UNL1        0.0623
@<TRIPOS>BOND
     1     1     2    2
     2     2     3   am
     3     2    31    1
     4     3     4    1
     5     3    39    1
     6     4     5    1
     7     4     8    1
     8     4    40    1
     9     5     7    1
    10     5     6    1
    11     5    41    1
    12     6     7    1
    13     6    42    1
    14     6    43    1
    15     7    44    1
    16     7    45    1
    17     8     9    2
    18     8    10   am
    19    10    11    1
    20    10    46    1
    21    11    12    1
    22    11    19    1
    23    11    47    1
    24    12    13    1
    25    12    48    1
    26    12    49    1
    27    13    17    1
    28    13    14    1
    29    13    50    1
    30    14    15    1
    31    14    51    1
    32    14    52    1
    33    15    16    1
    34    15    53    1
    35    15    54    1
    36    16    17   am
    37    16    55    1
    38    17    18    2
    39    19    20    2
    40    19    21    1
    41    21    22    2
    42    21    23   am
    43    23    24    1
    44    23    56    1
    45    24    25    1
    46    24    57    1
    47    24    58    1
    48    25    30   ar
    49    25    26   ar
    50    26    27   ar
    51    26    59    1
    52    27    28   ar
    53    27    60    1
    54    28    29   ar
    55    28    61    1
    56    29    30   ar
    57    29    62    1
    58    30    63    1
    59    31    32    2
    60    31    64    1
    61    32    33    1
    62    32    65    1
    63    33    38   ar
    64    33    34   ar
    65    34    35   ar
    66    34    66    1
    67    35    36   ar
    68    35    67    1
    69    36    37   ar
    70    36    68    1
    71    37    38   ar
    72    37    69    1
    73    38    70    1
