@<TRIPOS>MOLECULE
*****
 83 83 0 0 0
SMALL
GASTEIGER
****
Schrodinger Suite 2019-4.
@<TRIPOS>ATOM
      1 C         -17.5891   -6.9349  -26.0151 C.3     1  UNL1       -0.0626
      2 C         -17.5459   -5.3909  -26.0123 C.3     1  UNL1       -0.0446
      3 C         -16.2660   -4.8691  -25.3296 C.3     1  UNL1       -0.0626
      4 C         -18.7998   -4.7597  -25.3602 C.3     1  UNL1       -0.0236
      5 C         -20.1566   -5.1830  -25.9700 C.3     1  UNL1        0.0996
      6 N         -20.2395   -4.7825  -27.3724 N.am    1  UNL1       -0.3025
      7 C         -21.1864   -5.2103  -28.2266 C.2     1  UNL1        0.2342
      8 O         -22.1150   -5.9449  -27.8950 O.2     1  UNL1       -0.2738
      9 C         -21.0069   -4.7919  -29.7066 C.3     1  UNL1        0.1017
     10 N         -20.3656   -5.8328  -30.5170 N.am    1  UNL1       -0.3022
     11 C         -19.1417   -6.3457  -30.2973 C.2     1  UNL1        0.2338
     12 O         -18.3976   -5.9438  -29.4029 O.2     1  UNL1       -0.2738
     13 C         -18.6456   -7.4639  -31.2487 C.3     1  UNL1        0.0997
     14 C         -17.2079   -7.9547  -30.9785 C.3     1  UNL1       -0.0380
     15 N         -18.7579   -7.1156  -32.6747 N.am    1  UNL1       -0.2701
     16 C         -19.8271   -7.5393  -33.4472 C.2     1  UNL1        0.4012
     17 O         -20.7553   -8.2564  -33.0743 O.2     1  UNL1       -0.2265
     18 O         -19.6903   -7.0383  -34.6894 O.3     1  UNL1       -0.4456
     19 C         -20.5140   -7.4671  -35.7764 C.3     1  UNL1        0.1191
     20 C         -19.9071   -8.6790  -36.4670 C.ar    1  UNL1       -0.0103
     21 C         -18.5251   -8.7564  -36.6695 C.ar    1  UNL1       -0.0554
     22 C         -17.9827   -9.8577  -37.3259 C.ar    1  UNL1       -0.0614
     23 C         -18.8247  -10.8631  -37.7972 C.ar    1  UNL1       -0.0617
     24 C         -20.2032  -10.7871  -37.6044 C.ar    1  UNL1       -0.0614
     25 C         -20.7466   -9.6958  -36.9289 C.ar    1  UNL1       -0.0554
     26 C         -22.3417   -4.2957  -30.3516 C.3     1  UNL1       -0.0197
     27 C         -23.0361   -3.1751  -29.5454 C.3     1  UNL1       -0.0605
     28 C         -23.3543   -5.4119  -30.6853 C.3     1  UNL1       -0.0605
     29 C         -21.3079   -4.5905  -25.1513 C.2     1  UNL1        0.2339
     30 O         -21.6563   -3.4223  -25.3331 O.2     1  UNL1       -0.2738
     31 N         -21.8603   -5.4245  -24.2525 N.am    1  UNL1       -0.3038
     32 C         -22.9932   -5.1286  -23.3575 C.3     1  UNL1        0.0909
     33 C         -23.3381   -6.3971  -22.5384 C.3     1  UNL1       -0.0190
     34 C         -23.9093   -7.5492  -23.3990 C.3     1  UNL1        0.0258
     35 C         -24.4703   -8.6918  -22.5494 C.2     1  UNL1        0.2106
     36 N         -25.5373   -8.4257  -21.7919 N.am    1  UNL1       -0.3293
     37 O         -23.9523   -9.8042  -22.5701 O.2     1  UNL1       -0.2760
     38 C         -22.6822   -3.9567  -22.4182 C.2     1  UNL1        0.2553
     39 O         -21.5351   -3.5943  -22.1343 O.2     1  UNL1       -0.2860
     40 C         -23.8762   -3.0929  -22.0089 C.3     1  UNL1        0.4525
     41 F         -23.5494   -2.3675  -20.9373 F       1  UNL1       -0.1633
     42 F         -24.1636   -2.2866  -23.0263 F       1  UNL1       -0.1633
     43 F         -24.9397   -3.8493  -21.7356 F       1  UNL1       -0.1633
     44 H         -17.8702   -7.3037  -27.0057 H       1  UNL1        0.0232
     45 H         -16.6243   -7.3863  -25.7695 H       1  UNL1        0.0232
     46 H         -18.3076   -7.3298  -25.2955 H       1  UNL1        0.0232
     47 H         -17.4984   -5.0706  -27.0522 H       1  UNL1        0.0296
     48 H         -15.9135   -3.9560  -25.8108 H       1  UNL1        0.0232
     49 H         -16.4377   -4.6456  -24.2782 H       1  UNL1        0.0232
     50 H         -15.4465   -5.5870  -25.3675 H       1  UNL1        0.0232
     51 H         -18.7105   -3.6715  -25.3997 H       1  UNL1        0.0290
     52 H         -18.7990   -5.0139  -24.2993 H       1  UNL1        0.0290
     53 H         -20.2406   -6.2700  -25.9323 H       1  UNL1        0.0594
     54 H         -19.4847   -4.2087  -27.7101 H       1  UNL1        0.1495
     55 H         -20.3296   -3.9394  -29.7151 H       1  UNL1        0.0597
     56 H         -20.9378   -6.2368  -31.2427 H       1  UNL1        0.1495
     57 H         -19.2633   -8.3337  -31.0110 H       1  UNL1        0.0593
     58 H         -16.9479   -8.7935  -31.6264 H       1  UNL1        0.0252
     59 H         -16.4762   -7.1671  -31.1444 H       1  UNL1        0.0252
     60 H         -17.0936   -8.2854  -29.9468 H       1  UNL1        0.0252
     61 H         -18.0486   -6.5258  -33.0871 H       1  UNL1        0.1528
     62 H         -20.5589   -6.6783  -36.5285 H       1  UNL1        0.0749
     63 H         -21.5438   -7.6589  -35.4549 H       1  UNL1        0.0749
     64 H         -17.8784   -7.9571  -36.3302 H       1  UNL1        0.0621
     65 H         -16.9151   -9.9222  -37.4830 H       1  UNL1        0.0618
     66 H         -18.4026  -11.7148  -38.3099 H       1  UNL1        0.0618
     67 H         -20.8503  -11.5740  -37.9687 H       1  UNL1        0.0618
     68 H         -21.8166   -9.6323  -36.7814 H       1  UNL1        0.0621
     69 H         -22.0665   -3.8453  -31.3053 H       1  UNL1        0.0318
     70 H         -23.8819   -2.7653  -30.0974 H       1  UNL1        0.0233
     71 H         -23.4256   -3.5352  -28.5922 H       1  UNL1        0.0233
     72 H         -22.3607   -2.3432  -29.3367 H       1  UNL1        0.0233
     73 H         -24.1955   -5.0098  -31.2504 H       1  UNL1        0.0233
     74 H         -22.9117   -6.1982  -31.2974 H       1  UNL1        0.0233
     75 H         -23.7647   -5.8765  -29.7919 H       1  UNL1        0.0233
     76 H         -21.5393   -6.3834  -24.2420 H       1  UNL1        0.1494
     77 H         -23.8564   -4.8846  -23.9849 H       1  UNL1        0.0580
     78 H         -24.0744   -6.1533  -21.7677 H       1  UNL1        0.0292
     79 H         -22.4491   -6.7425  -22.0037 H       1  UNL1        0.0292
     80 H         -23.1304   -7.9446  -24.0587 H       1  UNL1        0.0359
     81 H         -24.7151   -7.1861  -24.0426 H       1  UNL1        0.0359
     82 H         -25.9304   -9.1593  -21.2218 H       1  UNL1        0.1449
     83 H         -25.9658   -7.5138  -21.7959 H       1  UNL1        0.1449
@<TRIPOS>BOND
     1     1     2    1
     2     1    44    1
     3     1    45    1
     4     1    46    1
     5     2     3    1
     6     2     4    1
     7     2    47    1
     8     3    48    1
     9     3    49    1
    10     3    50    1
    11     4     5    1
    12     4    51    1
    13     4    52    1
    14     5     6    1
    15     5    29    1
    16     5    53    1
    17     6     7   am
    18     6    54    1
    19     7     8    2
    20     7     9    1
    21     9    10    1
    22     9    26    1
    23     9    55    1
    24    10    11   am
    25    10    56    1
    26    11    12    2
    27    11    13    1
    28    13    14    1
    29    13    15    1
    30    13    57    1
    31    14    58    1
    32    14    59    1
    33    14    60    1
    34    15    16   am
    35    15    61    1
    36    16    17    2
    37    16    18    1
    38    18    19    1
    39    19    20    1
    40    19    62    1
    41    19    63    1
    42    20    25   ar
    43    20    21   ar
    44    21    22   ar
    45    21    64    1
    46    22    23   ar
    47    22    65    1
    48    23    24   ar
    49    23    66    1
    50    24    25   ar
    51    24    67    1
    52    25    68    1
    53    26    27    1
    54    26    28    1
    55    26    69    1
    56    27    70    1
    57    27    71    1
    58    27    72    1
    59    28    73    1
    60    28    74    1
    61    28    75    1
    62    29    30    2
    63    29    31   am
    64    31    32    1
    65    31    76    1
    66    32    33    1
    67    32    38    1
    68    32    77    1
    69    33    34    1
    70    33    78    1
    71    33    79    1
    72    34    35    1
    73    34    80    1
    74    34    81    1
    75    35    36   am
    76    35    37    2
    77    36    82    1
    78    36    83    1
    79    38    39    2
    80    38    40    1
    81    40    41    1
    82    40    42    1
    83    40    43    1
