
                    3D
 Schrodinger Suite 2019-4.
 81 83  0  0  1  0            999 V2000
  -15.1315  -11.0920  -31.3281 C   0  0  0  0  0  0
  -15.1212   -9.6211  -30.9033 C   0  0  0  0  0  0
  -16.4035   -9.0949  -31.1611 O   0  0  0  0  0  0
  -17.4101   -9.2732  -30.2948 C   0  0  0  0  0  0
  -17.3420   -9.9346  -29.2601 O   0  0  0  0  0  0
  -18.6371   -8.6105  -30.7483 C   0  0  0  0  0  0
  -19.6824   -8.3888  -29.9240 C   0  0  0  0  0  0
  -20.9807   -7.7541  -30.3571 C   0  0  2  0  0  0
  -21.2736   -7.8791  -31.8612 C   0  0  0  0  0  0
  -20.3554   -6.9974  -32.6791 C   0  0  0  0  0  0
  -20.6596   -5.6335  -32.8797 C   0  0  0  0  0  0
  -19.7039   -4.7781  -33.4558 C   0  0  0  0  0  0
  -18.4685   -5.3000  -33.8873 C   0  0  0  0  0  0
  -18.1927   -6.6732  -33.7463 C   0  0  0  0  0  0
  -19.1326   -7.5212  -33.1381 C   0  0  0  0  0  0
  -20.9462   -6.3470  -29.9932 N   0  0  0  0  0  0
  -21.8605   -5.7832  -29.2211 C   0  0  0  0  0  0
  -22.7130   -6.4630  -28.6492 O   0  0  0  0  0  0
  -21.7531   -4.2637  -28.9842 C   0  0  2  0  0  0
  -22.2925   -3.9024  -27.5628 C   0  0  0  0  0  0
  -21.7994   -4.7608  -26.3871 C   0  0  0  0  0  0
  -22.1124   -5.9472  -26.2795 O   0  0  0  0  0  0
  -20.9678   -4.0632  -25.3264 C   0  0  2  0  0  0
  -19.7268   -4.7901  -25.1846 N   0  0  0  0  0  0
  -18.5168   -4.4946  -25.6649 C   0  0  0  0  0  0
  -18.2153   -3.4602  -26.2572 O   0  0  0  0  0  0
  -17.5469   -5.5981  -25.4021 C   0  0  0  0  0  0
  -16.2385   -5.4461  -25.2724 N   0  0  0  0  0  0
  -15.7371   -6.7088  -24.9702 O   0  0  0  0  0  0
  -16.7743   -7.5778  -24.9291 C   0  0  0  0  0  0
  -16.4249   -8.9617  -24.5416 C   0  0  0  0  0  0
  -17.9506   -6.9493  -25.2303 C   0  0  0  0  0  0
  -21.6785   -4.0997  -23.9410 C   0  0  0  0  0  0
  -20.8903   -3.4640  -22.7731 C   0  0  0  0  0  0
  -22.1629   -5.5015  -23.5518 C   0  0  0  0  0  0
  -22.4603   -3.4595  -30.1292 C   0  0  0  0  0  0
  -23.9633   -3.6032  -29.9941 C   0  0  0  0  0  0
  -24.5422   -4.8503  -30.2653 C   0  0  0  0  0  0
  -25.6041   -5.2880  -29.4568 C   0  0  0  0  0  0
  -26.2902   -4.3852  -28.6330 C   0  0  0  0  0  0
  -25.8595   -3.0551  -28.5698 C   0  0  0  0  0  0
  -24.6810   -2.6666  -29.2387 C   0  0  0  0  0  0
  -14.1585  -11.5538  -31.1641 H   0  0  0  0  0  0
  -15.8700  -11.6576  -30.7600 H   0  0  0  0  0  0
  -15.3771  -11.1953  -32.3843 H   0  0  0  0  0  0
  -14.3721   -9.0607  -31.4605 H   0  0  0  0  0  0
  -14.8844   -9.5268  -29.8435 H   0  0  0  0  0  0
  -18.6763   -8.2993  -31.7820 H   0  0  0  0  0  0
  -19.6338   -8.6696  -28.8825 H   0  0  0  0  0  0
  -21.7594   -8.3086  -29.8331 H   0  0  0  0  0  0
  -22.3036   -7.5734  -32.0482 H   0  0  0  0  0  0
  -21.1921   -8.9163  -32.1869 H   0  0  0  0  0  0
  -21.6021   -5.2283  -32.5442 H   0  0  0  0  0  0
  -19.9308   -3.7307  -33.5856 H   0  0  0  0  0  0
  -17.7356   -4.6597  -34.3514 H   0  0  0  0  0  0
  -17.2452   -7.0703  -34.0781 H   0  0  0  0  0  0
  -18.8902   -8.5624  -32.9880 H   0  0  0  0  0  0
  -20.2347   -5.7717  -30.4207 H   0  0  0  0  0  0
  -20.6921   -4.0091  -29.0120 H   0  0  0  0  0  0
  -23.3741   -4.0144  -27.5363 H   0  0  0  0  0  0
  -22.0967   -2.8510  -27.3523 H   0  0  0  0  0  0
  -20.7757   -3.0554  -25.6685 H   0  0  0  0  0  0
  -19.8074   -5.6936  -24.7386 H   0  0  0  0  0  0
  -17.1399   -9.6695  -24.9574 H   0  0  0  0  0  0
  -15.4279   -9.2285  -24.8887 H   0  0  0  0  0  0
  -16.4155   -9.0517  -23.4578 H   0  0  0  0  0  0
  -18.9416   -7.3742  -25.2730 H   0  0  0  0  0  0
  -22.5739   -3.4862  -24.0477 H   0  0  0  0  0  0
  -21.5155   -3.3901  -21.8827 H   0  0  0  0  0  0
  -20.0159   -4.0531  -22.4975 H   0  0  0  0  0  0
  -20.5499   -2.4553  -23.0045 H   0  0  0  0  0  0
  -22.6484   -5.4981  -22.5754 H   0  0  0  0  0  0
  -22.8935   -5.8531  -24.2682 H   0  0  0  0  0  0
  -21.3551   -6.2301  -23.5237 H   0  0  0  0  0  0
  -22.1449   -3.7949  -31.1180 H   0  0  0  0  0  0
  -22.1875   -2.4048  -30.0587 H   0  0  0  0  0  0
  -24.0286   -5.5715  -30.8845 H   0  0  0  0  0  0
  -25.9247   -6.3172  -29.4937 H   0  0  0  0  0  0
  -27.1509   -4.7104  -28.0657 H   0  0  0  0  0  0
  -26.3863   -2.3776  -27.9198 H   0  0  0  0  0  0
  -24.2262   -1.7138  -29.0576 H   0  0  0  0  0  0
  1  2  1  0  0  0
  1 43  1  0  0  0
  1 44  1  0  0  0
  1 45  1  0  0  0
  2  3  1  0  0  0
  2 46  1  0  0  0
  2 47  1  0  0  0
  3  4  1  0  0  0
  4  5  2  0  0  0
  4  6  1  0  0  0
  6  7  2  0  0  0
  6 48  1  0  0  0
  7  8  1  0  0  0
  7 49  1  0  0  0
  8  9  1  0  0  0
  8 16  1  0  0  0
  8 50  1  0  0  0
  9 10  1  0  0  0
  9 51  1  0  0  0
  9 52  1  0  0  0
 10 15  1  0  0  0
 10 11  2  0  0  0
 11 12  1  0  0  0
 11 53  1  0  0  0
 12 13  2  0  0  0
 12 54  1  0  0  0
 13 14  1  0  0  0
 13 55  1  0  0  0
 14 15  2  0  0  0
 14 56  1  0  0  0
 15 57  1  0  0  0
 16 17  1  0  0  0
 16 58  1  0  0  0
 17 18  2  0  0  0
 17 19  1  0  0  0
 19 20  1  0  0  0
 19 36  1  0  0  0
 19 59  1  0  0  0
 20 21  1  0  0  0
 20 60  1  0  0  0
 20 61  1  0  0  0
 21 22  2  0  0  0
 21 23  1  0  0  0
 23 24  1  0  0  0
 23 33  1  0  0  0
 23 62  1  0  0  0
 24 25  1  0  0  0
 24 63  1  0  0  0
 25 26  2  0  0  0
 25 27  1  0  0  0
 27 32  1  0  0  0
 27 28  2  0  0  0
 28 29  1  0  0  0
 29 30  1  0  0  0
 30 31  1  0  0  0
 30 32  2  0  0  0
 31 64  1  0  0  0
 31 65  1  0  0  0
 31 66  1  0  0  0
 32 67  1  0  0  0
 33 34  1  0  0  0
 33 35  1  0  0  0
 33 68  1  0  0  0
 34 69  1  0  0  0
 34 70  1  0  0  0
 34 71  1  0  0  0
 35 72  1  0  0  0
 35 73  1  0  0  0
 35 74  1  0  0  0
 36 37  1  0  0  0
 36 75  1  0  0  0
 36 76  1  0  0  0
 37 42  1  0  0  0
 37 38  2  0  0  0
 38 39  1  0  0  0
 38 77  1  0  0  0
 39 40  2  0  0  0
 39 78  1  0  0  0
 40 41  1  0  0  0
 40 79  1  0  0  0
 41 42  2  0  0  0
 41 80  1  0  0  0
 42 81  1  0  0  0
M  END
$$$$
