@<TRIPOS>MOLECULE
*****
 81 83 0 0 0
SMALL
GASTEIGER
****
Schrodinger Suite 2019-4.
@<TRIPOS>ATOM
      1 C         -15.1315  -11.0920  -31.3281 C.3     1  UNL1       -0.0306
      2 C         -15.1212   -9.6211  -30.9033 C.3     1  UNL1        0.0900
      3 O         -16.4035   -9.0949  -31.1611 O.3     1  UNL1       -0.4618
      4 C         -17.4101   -9.2732  -30.2948 C.2     1  UNL1        0.3317
      5 O         -17.3420   -9.9346  -29.2601 O.2     1  UNL1       -0.2456
      6 C         -18.6371   -8.6105  -30.7483 C.2     1  UNL1        0.0203
      7 C         -19.6824   -8.3888  -29.9240 C.2     1  UNL1       -0.0569
      8 C         -20.9807   -7.7541  -30.3571 C.3     1  UNL1        0.0460
      9 C         -21.2736   -7.8791  -31.8612 C.3     1  UNL1       -0.0056
     10 C         -20.3554   -6.9974  -32.6791 C.ar    1  UNL1       -0.0453
     11 C         -20.6596   -5.6335  -32.8797 C.ar    1  UNL1       -0.0585
     12 C         -19.7039   -4.7781  -33.4558 C.ar    1  UNL1       -0.0615
     13 C         -18.4685   -5.3000  -33.8873 C.ar    1  UNL1       -0.0617
     14 C         -18.1927   -6.6732  -33.7463 C.ar    1  UNL1       -0.0615
     15 C         -19.1326   -7.5212  -33.1381 C.ar    1  UNL1       -0.0585
     16 N         -20.9462   -6.3470  -29.9932 N.am    1  UNL1       -0.3085
     17 C         -21.8605   -5.7832  -29.2211 C.2     1  UNL1        0.2173
     18 O         -22.7130   -6.4630  -28.6492 O.2     1  UNL1       -0.2755
     19 C         -21.7531   -4.2637  -28.9842 C.3     1  UNL1        0.0462
     20 C         -22.2925   -3.9024  -27.5628 C.3     1  UNL1        0.0191
     21 C         -21.7994   -4.7608  -26.3871 C.2     1  UNL1        0.1544
     22 O         -22.1124   -5.9472  -26.2795 O.2     1  UNL1       -0.2954
     23 C         -20.9678   -4.0632  -25.3264 C.3     1  UNL1        0.0841
     24 N         -19.7268   -4.7901  -25.1846 N.am    1  UNL1       -0.3001
     25 C         -18.5168   -4.4946  -25.6649 C.2     1  UNL1        0.2663
     26 O         -18.2153   -3.4602  -26.2572 O.2     1  UNL1       -0.2684
     27 C         -17.5469   -5.5981  -25.4021 C.ar    1  UNL1        0.1678
     28 N         -16.2385   -5.4461  -25.2724 N.ar    1  UNL1       -0.0734
     29 O         -15.7371   -6.7088  -24.9702 O.2     1  UNL1       -0.3592
     30 C         -16.7743   -7.5778  -24.9291 C.ar    1  UNL1        0.1350
     31 C         -16.4249   -8.9617  -24.5416 C.3     1  UNL1       -0.0037
     32 C         -17.9506   -6.9493  -25.2303 C.ar    1  UNL1        0.0125
     33 C         -21.6785   -4.0997  -23.9410 C.3     1  UNL1       -0.0213
     34 C         -20.8903   -3.4640  -22.7731 C.3     1  UNL1       -0.0606
     35 C         -22.1629   -5.5015  -23.5518 C.3     1  UNL1       -0.0606
     36 C         -22.4603   -3.4595  -30.1292 C.3     1  UNL1       -0.0162
     37 C         -23.9633   -3.6032  -29.9941 C.ar    1  UNL1       -0.0466
     38 C         -24.5422   -4.8503  -30.2653 C.ar    1  UNL1       -0.0586
     39 C         -25.6041   -5.2880  -29.4568 C.ar    1  UNL1       -0.0615
     40 C         -26.2902   -4.3852  -28.6330 C.ar    1  UNL1       -0.0617
     41 C         -25.8595   -3.0551  -28.5698 C.ar    1  UNL1       -0.0615
     42 C         -24.6810   -2.6666  -29.2387 C.ar    1  UNL1       -0.0586
     43 H         -14.1585  -11.5538  -31.1641 H       1  UNL1        0.0262
     44 H         -15.8700  -11.6576  -30.7600 H       1  UNL1        0.0262
     45 H         -15.3771  -11.1953  -32.3843 H       1  UNL1        0.0262
     46 H         -14.3721   -9.0607  -31.4605 H       1  UNL1        0.0695
     47 H         -14.8844   -9.5268  -29.8435 H       1  UNL1        0.0695
     48 H         -18.6763   -8.2993  -31.7820 H       1  UNL1        0.0686
     49 H         -19.6338   -8.6696  -28.8825 H       1  UNL1        0.0593
     50 H         -21.7594   -8.3086  -29.8331 H       1  UNL1        0.0546
     51 H         -22.3036   -7.5734  -32.0482 H       1  UNL1        0.0334
     52 H         -21.1921   -8.9163  -32.1869 H       1  UNL1        0.0334
     53 H         -21.6021   -5.2283  -32.5442 H       1  UNL1        0.0620
     54 H         -19.9308   -3.7307  -33.5856 H       1  UNL1        0.0618
     55 H         -17.7356   -4.6597  -34.3514 H       1  UNL1        0.0618
     56 H         -17.2452   -7.0703  -34.0781 H       1  UNL1        0.0618
     57 H         -18.8902   -8.5624  -32.9880 H       1  UNL1        0.0620
     58 H         -20.2347   -5.7717  -30.4207 H       1  UNL1        0.1493
     59 H         -20.6921   -4.0091  -29.0120 H       1  UNL1        0.0401
     60 H         -23.3741   -4.0144  -27.5363 H       1  UNL1        0.0350
     61 H         -22.0967   -2.8510  -27.3523 H       1  UNL1        0.0350
     62 H         -20.7757   -3.0554  -25.6685 H       1  UNL1        0.0580
     63 H         -19.8074   -5.6936  -24.7386 H       1  UNL1        0.1498
     64 H         -17.1399   -9.6695  -24.9574 H       1  UNL1        0.0309
     65 H         -15.4279   -9.2285  -24.8887 H       1  UNL1        0.0309
     66 H         -16.4155   -9.0517  -23.4578 H       1  UNL1        0.0309
     67 H         -18.9416   -7.3742  -25.2730 H       1  UNL1        0.0676
     68 H         -22.5739   -3.4862  -24.0477 H       1  UNL1        0.0317
     69 H         -21.5155   -3.3901  -21.8827 H       1  UNL1        0.0233
     70 H         -20.0159   -4.0531  -22.4975 H       1  UNL1        0.0233
     71 H         -20.5499   -2.4553  -23.0045 H       1  UNL1        0.0233
     72 H         -22.6484   -5.4981  -22.5754 H       1  UNL1        0.0233
     73 H         -22.8935   -5.8531  -24.2682 H       1  UNL1        0.0233
     74 H         -21.3551   -6.2301  -23.5237 H       1  UNL1        0.0233
     75 H         -22.1449   -3.7949  -31.1180 H       1  UNL1        0.0321
     76 H         -22.1875   -2.4048  -30.0587 H       1  UNL1        0.0321
     77 H         -24.0286   -5.5715  -30.8845 H       1  UNL1        0.0620
     78 H         -25.9247   -6.3172  -29.4937 H       1  UNL1        0.0618
     79 H         -27.1509   -4.7104  -28.0657 H       1  UNL1        0.0618
     80 H         -26.3863   -2.3776  -27.9198 H       1  UNL1        0.0618
     81 H         -24.2262   -1.7138  -29.0576 H       1  UNL1        0.0620
@<TRIPOS>BOND
     1     1     2    1
     2     1    43    1
     3     1    44    1
     4     1    45    1
     5     2     3    1
     6     2    46    1
     7     2    47    1
     8     3     4    1
     9     4     5    2
    10     4     6    1
    11     6     7    2
    12     6    48    1
    13     7     8    1
    14     7    49    1
    15     8     9    1
    16     8    16    1
    17     8    50    1
    18     9    10    1
    19     9    51    1
    20     9    52    1
    21    10    15   ar
    22    10    11   ar
    23    11    12   ar
    24    11    53    1
    25    12    13   ar
    26    12    54    1
    27    13    14   ar
    28    13    55    1
    29    14    15   ar
    30    14    56    1
    31    15    57    1
    32    16    17   am
    33    16    58    1
    34    17    18    2
    35    17    19    1
    36    19    20    1
    37    19    36    1
    38    19    59    1
    39    20    21    1
    40    20    60    1
    41    20    61    1
    42    21    22    2
    43    21    23    1
    44    23    24    1
    45    23    33    1
    46    23    62    1
    47    24    25   am
    48    24    63    1
    49    25    26    2
    50    25    27    1
    51    27    32   ar
    52    27    28   ar
    53    28    29   ar
    54    29    30   ar
    55    30    31    1
    56    30    32   ar
    57    31    64    1
    58    31    65    1
    59    31    66    1
    60    32    67    1
    61    33    34    1
    62    33    35    1
    63    33    68    1
    64    34    69    1
    65    34    70    1
    66    34    71    1
    67    35    72    1
    68    35    73    1
    69    35    74    1
    70    36    37    1
    71    36    75    1
    72    36    76    1
    73    37    42   ar
    74    37    38   ar
    75    38    39   ar
    76    38    77    1
    77    39    40   ar
    78    39    78    1
    79    40    41   ar
    80    40    79    1
    81    41    42   ar
    82    41    80    1
    83    42    81    1
