
                    3D
 Schrodinger Suite 2019-4.
 83 87  0  0  1  0            999 V2000
  -25.1879  -10.5481  -32.4722 C   0  0  0  0  0  0
  -24.2415  -11.7461  -32.2680 C   0  0  0  0  0  0
  -24.1552  -12.1338  -30.7788 C   0  0  0  0  0  0
  -22.8451  -11.5012  -32.8798 C   0  0  0  0  0  0
  -22.2415  -10.3707  -32.2574 O   0  0  0  0  0  0
  -20.9071  -10.1069  -32.4860 C   0  0  0  0  0  0
  -20.4086   -8.9827  -31.8097 C   0  0  0  0  0  0
  -20.9835   -7.9922  -30.9453 C   0  0  0  0  0  0
  -19.9783   -7.1030  -30.5818 C   0  0  0  0  0  0
  -18.8148   -7.5445  -31.1626 N   0  0  0  0  0  0
  -19.0290   -8.6577  -31.9455 C   0  0  0  0  0  0
  -18.1561   -9.3959  -32.7514 C   0  0  0  0  0  0
  -18.6986  -10.4831  -33.4352 C   0  0  0  0  0  0
  -20.0407  -10.8395  -33.3097 C   0  0  0  0  0  0
  -20.0041   -5.9824  -29.6831 C   0  0  0  0  0  0
  -18.9834   -5.5763  -29.1263 O   0  0  0  0  0  0
  -21.2149   -5.4302  -29.5039 N   0  0  0  0  0  0
  -21.4669   -4.3433  -28.5531 C   0  0  1  0  0  0
  -22.7908   -3.6074  -28.8959 C   0  0  0  0  0  0
  -22.8786   -3.0574  -30.3492 C   0  0  0  0  0  0
  -23.5842   -1.6877  -30.4122 C   0  0  0  0  0  0
  -23.5725   -4.0481  -31.3048 C   0  0  0  0  0  0
  -21.4608   -4.9265  -27.1215 C   0  0  0  0  0  0
  -21.9874   -6.0221  -26.9061 O   0  0  0  0  0  0
  -20.8642   -4.1934  -26.1637 N   0  0  0  0  0  0
  -20.6314   -4.6490  -24.7769 C   0  0  1  0  0  0
  -19.1196   -4.6258  -24.4193 C   0  0  0  0  0  0
  -18.2699   -5.6322  -25.2504 C   0  0  2  0  0  0
  -18.4418   -7.1015  -24.8900 C   0  0  0  0  0  0
  -17.1038   -7.7145  -25.2687 C   0  0  0  0  0  0
  -16.1841   -6.5955  -25.1221 N   0  0  0  0  0  0
  -16.7589   -5.3848  -25.1270 C   0  0  0  0  0  0
  -16.1866   -4.3009  -25.1268 O   0  0  0  0  0  0
  -21.5126   -3.7713  -23.8785 C   0  0  0  0  0  0
  -21.0206   -3.1010  -22.9664 O   0  0  0  0  0  0
  -22.9603   -3.7503  -24.1306 C   0  0  0  0  0  0
  -23.6296   -4.7005  -24.7270 N   0  0  0  0  0  0
  -24.9223   -4.3702  -24.9470 C   0  0  0  0  0  0
  -25.8414   -5.1725  -25.6391 C   0  0  0  0  0  0
  -27.1276   -4.6742  -25.8475 C   0  0  0  0  0  0
  -27.4943   -3.4138  -25.3774 C   0  0  0  0  0  0
  -26.5982   -2.6106  -24.6716 C   0  0  0  0  0  0
  -25.3054   -3.1009  -24.4474 C   0  0  0  0  0  0
  -23.9222   -2.3630  -23.6346 S   0  0  0  0  0  0
  -25.2801  -10.2975  -33.5262 H   0  0  0  0  0  0
  -26.1901  -10.7641  -32.0999 H   0  0  0  0  0  0
  -24.8279   -9.6617  -31.9486 H   0  0  0  0  0  0
  -24.6764  -12.5945  -32.7970 H   0  0  0  0  0  0
  -23.5234  -13.0112  -30.6359 H   0  0  0  0  0  0
  -23.7342  -11.3242  -30.1809 H   0  0  0  0  0  0
  -25.1392  -12.3714  -30.3721 H   0  0  0  0  0  0
  -22.9244  -11.3261  -33.9539 H   0  0  0  0  0  0
  -22.2389  -12.3983  -32.7413 H   0  0  0  0  0  0
  -22.0155   -7.9470  -30.6272 H   0  0  0  0  0  0
  -17.9407   -7.0369  -31.0497 H   0  0  0  0  0  0
  -17.1102   -9.1423  -32.8494 H   0  0  0  0  0  0
  -18.0621  -11.0734  -34.0792 H   0  0  0  0  0  0
  -20.3939  -11.6969  -33.8621 H   0  0  0  0  0  0
  -22.0265   -5.8584  -29.9251 H   0  0  0  0  0  0
  -20.6462   -3.6252  -28.6392 H   0  0  0  0  0  0
  -22.8576   -2.7633  -28.2076 H   0  0  0  0  0  0
  -23.6619   -4.2282  -28.6771 H   0  0  0  0  0  0
  -21.8650   -2.8995  -30.7195 H   0  0  0  0  0  0
  -24.2564   -1.5997  -31.2658 H   0  0  0  0  0  0
  -24.1840   -1.5015  -29.5269 H   0  0  0  0  0  0
  -22.8579   -0.8780  -30.4897 H   0  0  0  0  0  0
  -23.7379   -3.5999  -32.2866 H   0  0  0  0  0  0
  -22.9832   -4.9511  -31.4620 H   0  0  0  0  0  0
  -24.5431   -4.3575  -30.9170 H   0  0  0  0  0  0
  -20.4537   -3.3045  -26.4153 H   0  0  0  0  0  0
  -20.9714   -5.6793  -24.6420 H   0  0  0  0  0  0
  -18.9863   -4.8411  -23.3602 H   0  0  0  0  0  0
  -18.7412   -3.6114  -24.5695 H   0  0  0  0  0  0
  -18.4861   -5.4754  -26.3089 H   0  0  0  0  0  0
  -19.2833   -7.5815  -25.3902 H   0  0  0  0  0  0
  -18.6023   -7.2145  -23.8164 H   0  0  0  0  0  0
  -17.0876   -8.0669  -26.3017 H   0  0  0  0  0  0
  -16.8249   -8.5434  -24.6174 H   0  0  0  0  0  0
  -15.1798   -6.7064  -25.2664 H   0  0  0  0  0  0
  -25.5549   -6.1428  -26.0186 H   0  0  0  0  0  0
  -27.8514   -5.2692  -26.3865 H   0  0  0  0  0  0
  -28.4918   -3.0467  -25.5760 H   0  0  0  0  0  0
  -26.8970   -1.6326  -24.3199 H   0  0  0  0  0  0
  1  2  1  0  0  0
  1 45  1  0  0  0
  1 46  1  0  0  0
  1 47  1  0  0  0
  2  3  1  0  0  0
  2  4  1  0  0  0
  2 48  1  0  0  0
  3 49  1  0  0  0
  3 50  1  0  0  0
  3 51  1  0  0  0
  4  5  1  0  0  0
  4 52  1  0  0  0
  4 53  1  0  0  0
  5  6  1  0  0  0
  6 14  1  0  0  0
  6  7  2  0  0  0
  7 11  1  0  0  0
  7  8  1  0  0  0
  8  9  2  0  0  0
  8 54  1  0  0  0
  9 10  1  0  0  0
  9 15  1  0  0  0
 10 11  1  0  0  0
 10 55  1  0  0  0
 11 12  2  0  0  0
 12 13  1  0  0  0
 12 56  1  0  0  0
 13 14  2  0  0  0
 13 57  1  0  0  0
 14 58  1  0  0  0
 15 16  2  0  0  0
 15 17  1  0  0  0
 17 18  1  0  0  0
 17 59  1  0  0  0
 18 19  1  0  0  0
 18 23  1  0  0  0
 18 60  1  0  0  0
 19 20  1  0  0  0
 19 61  1  0  0  0
 19 62  1  0  0  0
 20 21  1  0  0  0
 20 22  1  0  0  0
 20 63  1  0  0  0
 21 64  1  0  0  0
 21 65  1  0  0  0
 21 66  1  0  0  0
 22 67  1  0  0  0
 22 68  1  0  0  0
 22 69  1  0  0  0
 23 24  2  0  0  0
 23 25  1  0  0  0
 25 26  1  0  0  0
 25 70  1  0  0  0
 26 27  1  0  0  0
 26 34  1  0  0  0
 26 71  1  0  0  0
 27 28  1  0  0  0
 27 72  1  0  0  0
 27 73  1  0  0  0
 28 32  1  0  0  0
 28 29  1  0  0  0
 28 74  1  0  0  0
 29 30  1  0  0  0
 29 75  1  0  0  0
 29 76  1  0  0  0
 30 31  1  0  0  0
 30 77  1  0  0  0
 30 78  1  0  0  0
 31 32  1  0  0  0
 31 79  1  0  0  0
 32 33  2  0  0  0
 34 35  2  0  0  0
 34 36  1  0  0  0
 36 44  1  0  0  0
 36 37  2  0  0  0
 37 38  1  0  0  0
 38 43  2  0  0  0
 38 39  1  0  0  0
 39 40  2  0  0  0
 39 80  1  0  0  0
 40 41  1  0  0  0
 40 81  1  0  0  0
 41 42  2  0  0  0
 41 82  1  0  0  0
 42 43  1  0  0  0
 42 83  1  0  0  0
 43 44  1  0  0  0
M  END
$$$$
