@<TRIPOS>MOLECULE
*****
 83 87 0 0 0
SMALL
GASTEIGER
****
Schrodinger Suite 2019-4.
@<TRIPOS>ATOM
      1 C         -25.1879  -10.5481  -32.4722 C.3     1  UNL1       -0.0596
      2 C         -24.2415  -11.7461  -32.2680 C.3     1  UNL1       -0.0124
      3 C         -24.1552  -12.1338  -30.7788 C.3     1  UNL1       -0.0596
      4 C         -22.8451  -11.5012  -32.8798 C.3     1  UNL1        0.0919
      5 O         -22.2415  -10.3707  -32.2574 O.3     1  UNL1       -0.4910
      6 C         -20.9071  -10.1069  -32.4860 C.ar    1  UNL1        0.1296
      7 C         -20.4086   -8.9827  -31.8097 C.ar    1  UNL1        0.0420
      8 C         -20.9835   -7.9922  -30.9453 C.ar    1  UNL1       -0.0206
      9 C         -19.9783   -7.1030  -30.5818 C.ar    1  UNL1        0.1029
     10 N         -18.8148   -7.5445  -31.1626 N.ar    1  UNL1       -0.3505
     11 C         -19.0290   -8.6577  -31.9455 C.ar    1  UNL1        0.0505
     12 C         -18.1561   -9.3959  -32.7514 C.ar    1  UNL1       -0.0376
     13 C         -18.6986  -10.4831  -33.4352 C.ar    1  UNL1       -0.0563
     14 C         -20.0407  -10.8395  -33.3097 C.ar    1  UNL1       -0.0192
     15 C         -20.0041   -5.9824  -29.6831 C.2     1  UNL1        0.2610
     16 O         -18.9834   -5.5763  -29.1263 O.2     1  UNL1       -0.2686
     17 N         -21.2149   -5.4302  -29.5039 N.am    1  UNL1       -0.2988
     18 C         -21.4669   -4.3433  -28.5531 C.3     1  UNL1        0.0999
     19 C         -22.7908   -3.6074  -28.8959 C.3     1  UNL1       -0.0236
     20 C         -22.8786   -3.0574  -30.3492 C.3     1  UNL1       -0.0446
     21 C         -23.5842   -1.6877  -30.4122 C.3     1  UNL1       -0.0626
     22 C         -23.5725   -4.0481  -31.3048 C.3     1  UNL1       -0.0626
     23 C         -21.4608   -4.9265  -27.1215 C.2     1  UNL1        0.2339
     24 O         -21.9874   -6.0221  -26.9061 O.2     1  UNL1       -0.2738
     25 N         -20.8642   -4.1934  -26.1637 N.am    1  UNL1       -0.3037
     26 C         -20.6314   -4.6490  -24.7769 C.3     1  UNL1        0.0888
     27 C         -19.1196   -4.6258  -24.4193 C.3     1  UNL1       -0.0160
     28 C         -18.2699   -5.6322  -25.2504 C.3     1  UNL1        0.0390
     29 C         -18.4418   -7.1015  -24.8900 C.3     1  UNL1       -0.0262
     30 C         -17.1038   -7.7145  -25.2687 C.3     1  UNL1        0.0123
     31 N         -16.1841   -6.5955  -25.1221 N.am    1  UNL1       -0.3151
     32 C         -16.7589   -5.3848  -25.1270 C.2     1  UNL1        0.2162
     33 O         -16.1866   -4.3009  -25.1268 O.2     1  UNL1       -0.2755
     34 C         -21.5126   -3.7713  -23.8785 C.2     1  UNL1        0.2079
     35 O         -21.0206   -3.1010  -22.9664 O.2     1  UNL1       -0.2879
     36 C         -22.9603   -3.7503  -24.1306 C.ar    1  UNL1        0.1465
     37 N         -23.6296   -4.7005  -24.7270 N.ar    1  UNL1       -0.2360
     38 C         -24.9223   -4.3702  -24.9470 C.ar    1  UNL1        0.0790
     39 C         -25.8414   -5.1725  -25.6391 C.ar    1  UNL1       -0.0352
     40 C         -27.1276   -4.6742  -25.8475 C.ar    1  UNL1       -0.0597
     41 C         -27.4943   -3.4138  -25.3774 C.ar    1  UNL1       -0.0606
     42 C         -26.5982   -2.6106  -24.6716 C.ar    1  UNL1       -0.0459
     43 C         -25.3054   -3.1009  -24.4474 C.ar    1  UNL1        0.0396
     44 S         -23.9222   -2.3630  -23.6346 S.2     1  UNL1       -0.0643
     45 H         -25.2801  -10.2975  -33.5262 H       1  UNL1        0.0233
     46 H         -26.1901  -10.7641  -32.0999 H       1  UNL1        0.0233
     47 H         -24.8279   -9.6617  -31.9486 H       1  UNL1        0.0233
     48 H         -24.6764  -12.5945  -32.7970 H       1  UNL1        0.0328
     49 H         -23.5234  -13.0112  -30.6359 H       1  UNL1        0.0233
     50 H         -23.7342  -11.3242  -30.1809 H       1  UNL1        0.0233
     51 H         -25.1392  -12.3714  -30.3721 H       1  UNL1        0.0233
     52 H         -22.9244  -11.3261  -33.9539 H       1  UNL1        0.0699
     53 H         -22.2389  -12.3983  -32.7413 H       1  UNL1        0.0699
     54 H         -22.0155   -7.9470  -30.6272 H       1  UNL1        0.0647
     55 H         -17.9407   -7.0369  -31.0497 H       1  UNL1        0.1660
     56 H         -17.1102   -9.1423  -32.8494 H       1  UNL1        0.0638
     57 H         -18.0621  -11.0734  -34.0792 H       1  UNL1        0.0619
     58 H         -20.3939  -11.6969  -33.8621 H       1  UNL1        0.0654
     59 H         -22.0265   -5.8584  -29.9251 H       1  UNL1        0.1498
     60 H         -20.6462   -3.6252  -28.6392 H       1  UNL1        0.0595
     61 H         -22.8576   -2.7633  -28.2076 H       1  UNL1        0.0290
     62 H         -23.6619   -4.2282  -28.6771 H       1  UNL1        0.0290
     63 H         -21.8650   -2.8995  -30.7195 H       1  UNL1        0.0296
     64 H         -24.2564   -1.5997  -31.2658 H       1  UNL1        0.0232
     65 H         -24.1840   -1.5015  -29.5269 H       1  UNL1        0.0232
     66 H         -22.8579   -0.8780  -30.4897 H       1  UNL1        0.0232
     67 H         -23.7379   -3.5999  -32.2866 H       1  UNL1        0.0232
     68 H         -22.9832   -4.9511  -31.4620 H       1  UNL1        0.0232
     69 H         -24.5431   -4.3575  -30.9170 H       1  UNL1        0.0232
     70 H         -20.4537   -3.3045  -26.4153 H       1  UNL1        0.1495
     71 H         -20.9714   -5.6793  -24.6420 H       1  UNL1        0.0582
     72 H         -18.9863   -4.8411  -23.3602 H       1  UNL1        0.0295
     73 H         -18.7412   -3.6114  -24.5695 H       1  UNL1        0.0295
     74 H         -18.4861   -5.4754  -26.3089 H       1  UNL1        0.0395
     75 H         -19.2833   -7.5815  -25.3902 H       1  UNL1        0.0288
     76 H         -18.6023   -7.2145  -23.8164 H       1  UNL1        0.0288
     77 H         -17.0876   -8.0669  -26.3017 H       1  UNL1        0.0462
     78 H         -16.8249   -8.5434  -24.6174 H       1  UNL1        0.0462
     79 H         -15.1798   -6.7064  -25.2664 H       1  UNL1        0.1487
     80 H         -25.5549   -6.1428  -26.0186 H       1  UNL1        0.0639
     81 H         -27.8514   -5.2692  -26.3865 H       1  UNL1        0.0618
     82 H         -28.4918   -3.0467  -25.5760 H       1  UNL1        0.0618
     83 H         -26.8970   -1.6326  -24.3199 H       1  UNL1        0.0629
@<TRIPOS>BOND
     1     1     2    1
     2     1    45    1
     3     1    46    1
     4     1    47    1
     5     2     3    1
     6     2     4    1
     7     2    48    1
     8     3    49    1
     9     3    50    1
    10     3    51    1
    11     4     5    1
    12     4    52    1
    13     4    53    1
    14     5     6    1
    15     6    14   ar
    16     6     7   ar
    17     7    11   ar
    18     7     8   ar
    19     8     9   ar
    20     8    54    1
    21     9    10   ar
    22     9    15    1
    23    10    11   ar
    24    10    55    1
    25    11    12   ar
    26    12    13   ar
    27    12    56    1
    28    13    14   ar
    29    13    57    1
    30    14    58    1
    31    15    16    2
    32    15    17   am
    33    17    18    1
    34    17    59    1
    35    18    19    1
    36    18    23    1
    37    18    60    1
    38    19    20    1
    39    19    61    1
    40    19    62    1
    41    20    21    1
    42    20    22    1
    43    20    63    1
    44    21    64    1
    45    21    65    1
    46    21    66    1
    47    22    67    1
    48    22    68    1
    49    22    69    1
    50    23    24    2
    51    23    25   am
    52    25    26    1
    53    25    70    1
    54    26    27    1
    55    26    34    1
    56    26    71    1
    57    27    28    1
    58    27    72    1
    59    27    73    1
    60    28    32    1
    61    28    29    1
    62    28    74    1
    63    29    30    1
    64    29    75    1
    65    29    76    1
    66    30    31    1
    67    30    77    1
    68    30    78    1
    69    31    32   am
    70    31    79    1
    71    32    33    2
    72    34    35    2
    73    34    36    1
    74    36    44   ar
    75    36    37   ar
    76    37    38   ar
    77    38    43   ar
    78    38    39   ar
    79    39    40   ar
    80    39    80    1
    81    40    41   ar
    82    40    81    1
    83    41    42   ar
    84    41    82    1
    85    42    43   ar
    86    42    83    1
    87    43    44   ar
