@<TRIPOS>MOLECULE
*****
 80 84 0 0 0
SMALL
GASTEIGER
****
Schrodinger Suite 2019-4.
@<TRIPOS>ATOM
      1 C         -23.5971   -1.8304  -30.3600 C.3     1  UNL1       -0.0626
      2 C         -22.9743   -3.2327  -30.3246 C.3     1  UNL1       -0.0446
      3 C         -23.6377   -4.2058  -31.3135 C.3     1  UNL1       -0.0626
      4 C         -22.9363   -3.8016  -28.8863 C.3     1  UNL1       -0.0236
      5 C         -21.5714   -4.4144  -28.5311 C.3     1  UNL1        0.0999
      6 N         -21.3069   -5.5590  -29.4027 N.am    1  UNL1       -0.2988
      7 C         -20.0809   -6.0484  -29.6340 C.2     1  UNL1        0.2610
      8 O         -19.0659   -5.5512  -29.1456 O.2     1  UNL1       -0.2686
      9 C         -19.9922   -7.2093  -30.5396 C.ar    1  UNL1        0.1028
     10 C         -20.9095   -8.0560  -31.1156 C.ar    1  UNL1       -0.0240
     11 C         -20.1682   -9.0198  -31.8889 C.ar    1  UNL1        0.0039
     12 C         -20.5040  -10.1441  -32.6824 C.ar    1  UNL1       -0.0108
     13 C         -19.5060  -10.9293  -33.3214 C.ar    1  UNL1        0.1216
     14 O         -19.7472  -12.0751  -34.0553 O.3     1  UNL1       -0.4893
     15 C         -21.0827  -12.5060  -34.3014 C.3     1  UNL1        0.0946
     16 C         -21.0361  -14.0033  -34.6223 C.3     1  UNL1       -0.0281
     17 C         -21.6530  -11.7104  -35.4782 C.3     1  UNL1       -0.0281
     18 C         -18.1534  -10.5524  -33.1963 C.ar    1  UNL1       -0.0180
     19 C         -17.7869   -9.4383  -32.4231 C.ar    1  UNL1       -0.0343
     20 C         -18.7867   -8.7027  -31.7700 C.ar    1  UNL1        0.0472
     21 N         -18.7318   -7.6128  -30.9358 N.ar    1  UNL1       -0.3506
     22 C         -21.5705   -4.8723  -27.0673 C.2     1  UNL1        0.2339
     23 O         -22.0991   -5.9401  -26.7533 O.2     1  UNL1       -0.2738
     24 N         -20.9428   -4.0750  -26.1866 N.am    1  UNL1       -0.3037
     25 C         -20.6465   -4.4493  -24.8002 C.3     1  UNL1        0.0888
     26 C         -19.1227   -4.2936  -24.5816 C.3     1  UNL1       -0.0160
     27 C         -18.2939   -5.3093  -25.3974 C.3     1  UNL1        0.0390
     28 C         -18.6001   -6.7773  -25.0624 C.3     1  UNL1       -0.0262
     29 C         -17.2496   -7.5004  -25.0426 C.3     1  UNL1        0.0123
     30 N         -16.2790   -6.4347  -24.9321 N.am    1  UNL1       -0.3151
     31 C         -16.7950   -5.2285  -25.1437 C.2     1  UNL1        0.2162
     32 O         -16.1528   -4.1854  -25.1744 O.2     1  UNL1       -0.2755
     33 C         -21.4655   -3.6010  -23.8031 C.2     1  UNL1        0.2079
     34 O         -20.9589   -2.9717  -22.8745 O.2     1  UNL1       -0.2879
     35 C         -22.9379   -3.5555  -23.9990 C.ar    1  UNL1        0.1465
     36 N         -23.6732   -4.5337  -24.5354 N.ar    1  UNL1       -0.2360
     37 C         -24.9869   -4.1195  -24.6850 C.ar    1  UNL1        0.0790
     38 C         -26.0452   -4.8628  -25.2507 C.ar    1  UNL1       -0.0352
     39 C         -27.3208   -4.2942  -25.4171 C.ar    1  UNL1       -0.0597
     40 C         -27.5523   -2.9644  -25.0299 C.ar    1  UNL1       -0.0606
     41 C         -26.5248   -2.2134  -24.4294 C.ar    1  UNL1       -0.0459
     42 C         -25.2622   -2.7950  -24.2466 C.ar    1  UNL1        0.0396
     43 S         -23.8198   -2.1052  -23.5280 S.2     1  UNL1       -0.0643
     44 H         -22.9407   -1.1078  -29.8730 H       1  UNL1        0.0232
     45 H         -23.7570   -1.4849  -31.3819 H       1  UNL1        0.0232
     46 H         -24.5461   -1.7983  -29.8362 H       1  UNL1        0.0232
     47 H         -21.9530   -3.0967  -30.6794 H       1  UNL1        0.0296
     48 H         -23.0292   -5.0981  -31.4509 H       1  UNL1        0.0232
     49 H         -24.6077   -4.5522  -30.9652 H       1  UNL1        0.0232
     50 H         -23.7721   -3.7471  -32.2934 H       1  UNL1        0.0232
     51 H         -23.7441   -4.5181  -28.7282 H       1  UNL1        0.0290
     52 H         -23.1276   -2.9940  -28.1794 H       1  UNL1        0.0290
     53 H         -20.8034   -3.6554  -28.6727 H       1  UNL1        0.0595
     54 H         -22.1034   -6.0193  -29.8212 H       1  UNL1        0.1498
     55 H         -21.9822   -8.0263  -31.0087 H       1  UNL1        0.0646
     56 H         -21.5493  -10.3923  -32.7649 H       1  UNL1        0.0661
     57 H         -21.7090  -12.3909  -33.4176 H       1  UNL1        0.0727
     58 H         -22.0328  -14.3919  -34.8318 H       1  UNL1        0.0265
     59 H         -20.4086  -14.2050  -35.4909 H       1  UNL1        0.0265
     60 H         -20.6311  -14.5670  -33.7817 H       1  UNL1        0.0265
     61 H         -22.7043  -11.9424  -35.6504 H       1  UNL1        0.0265
     62 H         -21.5636  -10.6496  -35.2782 H       1  UNL1        0.0265
     63 H         -21.1046  -11.9127  -36.3987 H       1  UNL1        0.0265
     64 H         -17.3870  -11.1359  -33.6848 H       1  UNL1        0.0655
     65 H         -16.7477   -9.1628  -32.3168 H       1  UNL1        0.0639
     66 H         -17.8935   -7.1101  -30.6684 H       1  UNL1        0.1660
     67 H         -20.5568   -3.2030  -26.5212 H       1  UNL1        0.1495
     68 H         -20.9127   -5.4899  -24.6162 H       1  UNL1        0.0582
     69 H         -18.8926   -4.4212  -23.5262 H       1  UNL1        0.0295
     70 H         -18.8025   -3.2837  -24.8357 H       1  UNL1        0.0295
     71 H         -18.4362   -5.1418  -26.4654 H       1  UNL1        0.0395
     72 H         -19.2925   -7.2266  -25.7752 H       1  UNL1        0.0288
     73 H         -19.0545   -6.8521  -24.0762 H       1  UNL1        0.0288
     74 H         -17.0754   -8.0437  -25.9728 H       1  UNL1        0.0462
     75 H         -17.1681   -8.1991  -24.2094 H       1  UNL1        0.0462
     76 H         -15.2894   -6.6115  -24.8061 H       1  UNL1        0.1487
     77 H         -25.8656   -5.8750  -25.5830 H       1  UNL1        0.0639
     78 H         -28.1171   -4.8702  -25.8657 H       1  UNL1        0.0618
     79 H         -28.5262   -2.5264  -25.1890 H       1  UNL1        0.0618
     80 H         -26.6996   -1.1961  -24.1154 H       1  UNL1        0.0629
@<TRIPOS>BOND
     1     1     2    1
     2     1    44    1
     3     1    45    1
     4     1    46    1
     5     2     3    1
     6     2     4    1
     7     2    47    1
     8     3    48    1
     9     3    49    1
    10     3    50    1
    11     4     5    1
    12     4    51    1
    13     4    52    1
    14     5     6    1
    15     5    22    1
    16     5    53    1
    17     6     7   am
    18     6    54    1
    19     7     8    2
    20     7     9    1
    21     9    21   ar
    22     9    10   ar
    23    10    11   ar
    24    10    55    1
    25    11    20   ar
    26    11    12   ar
    27    12    13   ar
    28    12    56    1
    29    13    14    1
    30    13    18   ar
    31    14    15    1
    32    15    16    1
    33    15    17    1
    34    15    57    1
    35    16    58    1
    36    16    59    1
    37    16    60    1
    38    17    61    1
    39    17    62    1
    40    17    63    1
    41    18    19   ar
    42    18    64    1
    43    19    20   ar
    44    19    65    1
    45    20    21   ar
    46    21    66    1
    47    22    23    2
    48    22    24   am
    49    24    25    1
    50    24    67    1
    51    25    26    1
    52    25    33    1
    53    25    68    1
    54    26    27    1
    55    26    69    1
    56    26    70    1
    57    27    31    1
    58    27    28    1
    59    27    71    1
    60    28    29    1
    61    28    72    1
    62    28    73    1
    63    29    30    1
    64    29    74    1
    65    29    75    1
    66    30    31   am
    67    30    76    1
    68    31    32    2
    69    33    34    2
    70    33    35    1
    71    35    43   ar
    72    35    36   ar
    73    36    37   ar
    74    37    42   ar
    75    37    38   ar
    76    38    39   ar
    77    38    77    1
    78    39    40   ar
    79    39    78    1
    80    40    41   ar
    81    40    79    1
    82    41    42   ar
    83    41    80    1
    84    42    43   ar
