
                    3D
 Schrodinger Suite 2019-4.
 80 84  0  0  1  0            999 V2000
  -23.5971   -1.8304  -30.3600 C   0  0  0  0  0  0
  -22.9743   -3.2327  -30.3246 C   0  0  0  0  0  0
  -23.6377   -4.2058  -31.3135 C   0  0  0  0  0  0
  -22.9363   -3.8016  -28.8863 C   0  0  0  0  0  0
  -21.5714   -4.4144  -28.5311 C   0  0  2  0  0  0
  -21.3069   -5.5590  -29.4027 N   0  0  0  0  0  0
  -20.0809   -6.0484  -29.6340 C   0  0  0  0  0  0
  -19.0659   -5.5512  -29.1456 O   0  0  0  0  0  0
  -19.9922   -7.2093  -30.5396 C   0  0  0  0  0  0
  -20.9095   -8.0560  -31.1156 C   0  0  0  0  0  0
  -20.1682   -9.0198  -31.8889 C   0  0  0  0  0  0
  -20.5040  -10.1441  -32.6824 C   0  0  0  0  0  0
  -19.5060  -10.9293  -33.3214 C   0  0  0  0  0  0
  -19.7472  -12.0751  -34.0553 O   0  0  0  0  0  0
  -21.0827  -12.5060  -34.3014 C   0  0  0  0  0  0
  -21.0361  -14.0033  -34.6223 C   0  0  0  0  0  0
  -21.6530  -11.7104  -35.4782 C   0  0  0  0  0  0
  -18.1534  -10.5524  -33.1963 C   0  0  0  0  0  0
  -17.7869   -9.4383  -32.4231 C   0  0  0  0  0  0
  -18.7867   -8.7027  -31.7700 C   0  0  0  0  0  0
  -18.7318   -7.6128  -30.9358 N   0  0  0  0  0  0
  -21.5705   -4.8723  -27.0673 C   0  0  0  0  0  0
  -22.0991   -5.9401  -26.7533 O   0  0  0  0  0  0
  -20.9428   -4.0750  -26.1866 N   0  0  0  0  0  0
  -20.6465   -4.4493  -24.8002 C   0  0  1  0  0  0
  -19.1227   -4.2936  -24.5816 C   0  0  0  0  0  0
  -18.2939   -5.3093  -25.3974 C   0  0  2  0  0  0
  -18.6001   -6.7773  -25.0624 C   0  0  0  0  0  0
  -17.2496   -7.5004  -25.0426 C   0  0  0  0  0  0
  -16.2790   -6.4347  -24.9321 N   0  0  0  0  0  0
  -16.7950   -5.2285  -25.1437 C   0  0  0  0  0  0
  -16.1528   -4.1854  -25.1744 O   0  0  0  0  0  0
  -21.4655   -3.6010  -23.8031 C   0  0  0  0  0  0
  -20.9589   -2.9717  -22.8745 O   0  0  0  0  0  0
  -22.9379   -3.5555  -23.9990 C   0  0  0  0  0  0
  -23.6732   -4.5337  -24.5354 N   0  0  0  0  0  0
  -24.9869   -4.1195  -24.6850 C   0  0  0  0  0  0
  -26.0452   -4.8628  -25.2507 C   0  0  0  0  0  0
  -27.3208   -4.2942  -25.4171 C   0  0  0  0  0  0
  -27.5523   -2.9644  -25.0299 C   0  0  0  0  0  0
  -26.5248   -2.2134  -24.4294 C   0  0  0  0  0  0
  -25.2622   -2.7950  -24.2466 C   0  0  0  0  0  0
  -23.8198   -2.1052  -23.5280 S   0  0  0  0  0  0
  -22.9407   -1.1078  -29.8730 H   0  0  0  0  0  0
  -23.7570   -1.4849  -31.3819 H   0  0  0  0  0  0
  -24.5461   -1.7983  -29.8362 H   0  0  0  0  0  0
  -21.9530   -3.0967  -30.6794 H   0  0  0  0  0  0
  -23.0292   -5.0981  -31.4509 H   0  0  0  0  0  0
  -24.6077   -4.5522  -30.9652 H   0  0  0  0  0  0
  -23.7721   -3.7471  -32.2934 H   0  0  0  0  0  0
  -23.7441   -4.5181  -28.7282 H   0  0  0  0  0  0
  -23.1276   -2.9940  -28.1794 H   0  0  0  0  0  0
  -20.8034   -3.6554  -28.6727 H   0  0  0  0  0  0
  -22.1034   -6.0193  -29.8212 H   0  0  0  0  0  0
  -21.9822   -8.0263  -31.0087 H   0  0  0  0  0  0
  -21.5493  -10.3923  -32.7649 H   0  0  0  0  0  0
  -21.7090  -12.3909  -33.4176 H   0  0  0  0  0  0
  -22.0328  -14.3919  -34.8318 H   0  0  0  0  0  0
  -20.4086  -14.2050  -35.4909 H   0  0  0  0  0  0
  -20.6311  -14.5670  -33.7817 H   0  0  0  0  0  0
  -22.7043  -11.9424  -35.6504 H   0  0  0  0  0  0
  -21.5636  -10.6496  -35.2782 H   0  0  0  0  0  0
  -21.1046  -11.9127  -36.3987 H   0  0  0  0  0  0
  -17.3870  -11.1359  -33.6848 H   0  0  0  0  0  0
  -16.7477   -9.1628  -32.3168 H   0  0  0  0  0  0
  -17.8935   -7.1101  -30.6684 H   0  0  0  0  0  0
  -20.5568   -3.2030  -26.5212 H   0  0  0  0  0  0
  -20.9127   -5.4899  -24.6162 H   0  0  0  0  0  0
  -18.8926   -4.4212  -23.5262 H   0  0  0  0  0  0
  -18.8025   -3.2837  -24.8357 H   0  0  0  0  0  0
  -18.4362   -5.1418  -26.4654 H   0  0  0  0  0  0
  -19.2925   -7.2266  -25.7752 H   0  0  0  0  0  0
  -19.0545   -6.8521  -24.0762 H   0  0  0  0  0  0
  -17.0754   -8.0437  -25.9728 H   0  0  0  0  0  0
  -17.1681   -8.1991  -24.2094 H   0  0  0  0  0  0
  -15.2894   -6.6115  -24.8061 H   0  0  0  0  0  0
  -25.8656   -5.8750  -25.5830 H   0  0  0  0  0  0
  -28.1171   -4.8702  -25.8657 H   0  0  0  0  0  0
  -28.5262   -2.5264  -25.1890 H   0  0  0  0  0  0
  -26.6996   -1.1961  -24.1154 H   0  0  0  0  0  0
  1  2  1  0  0  0
  1 44  1  0  0  0
  1 45  1  0  0  0
  1 46  1  0  0  0
  2  3  1  0  0  0
  2  4  1  0  0  0
  2 47  1  0  0  0
  3 48  1  0  0  0
  3 49  1  0  0  0
  3 50  1  0  0  0
  4  5  1  0  0  0
  4 51  1  0  0  0
  4 52  1  0  0  0
  5  6  1  0  0  0
  5 22  1  0  0  0
  5 53  1  0  0  0
  6  7  1  0  0  0
  6 54  1  0  0  0
  7  8  2  0  0  0
  7  9  1  0  0  0
  9 21  1  0  0  0
  9 10  2  0  0  0
 10 11  1  0  0  0
 10 55  1  0  0  0
 11 20  1  0  0  0
 11 12  2  0  0  0
 12 13  1  0  0  0
 12 56  1  0  0  0
 13 14  1  0  0  0
 13 18  2  0  0  0
 14 15  1  0  0  0
 15 16  1  0  0  0
 15 17  1  0  0  0
 15 57  1  0  0  0
 16 58  1  0  0  0
 16 59  1  0  0  0
 16 60  1  0  0  0
 17 61  1  0  0  0
 17 62  1  0  0  0
 17 63  1  0  0  0
 18 19  1  0  0  0
 18 64  1  0  0  0
 19 20  2  0  0  0
 19 65  1  0  0  0
 20 21  1  0  0  0
 21 66  1  0  0  0
 22 23  2  0  0  0
 22 24  1  0  0  0
 24 25  1  0  0  0
 24 67  1  0  0  0
 25 26  1  0  0  0
 25 33  1  0  0  0
 25 68  1  0  0  0
 26 27  1  0  0  0
 26 69  1  0  0  0
 26 70  1  0  0  0
 27 31  1  0  0  0
 27 28  1  0  0  0
 27 71  1  0  0  0
 28 29  1  0  0  0
 28 72  1  0  0  0
 28 73  1  0  0  0
 29 30  1  0  0  0
 29 74  1  0  0  0
 29 75  1  0  0  0
 30 31  1  0  0  0
 30 76  1  0  0  0
 31 32  2  0  0  0
 33 34  2  0  0  0
 33 35  1  0  0  0
 35 43  1  0  0  0
 35 36  2  0  0  0
 36 37  1  0  0  0
 37 42  2  0  0  0
 37 38  1  0  0  0
 38 39  2  0  0  0
 38 77  1  0  0  0
 39 40  1  0  0  0
 39 78  1  0  0  0
 40 41  2  0  0  0
 40 79  1  0  0  0
 41 42  1  0  0  0
 41 80  1  0  0  0
 42 43  1  0  0  0
M  END
$$$$
