@<TRIPOS>MOLECULE
*****
 75 75 0 0 0
SMALL
GASTEIGER
****
Schrodinger Suite 2019-4.
@<TRIPOS>ATOM
      1 CD1       -18.6711   -2.9188  -24.2590 C.3     1  LEU1       -0.0626
      2 CG        -20.0457   -3.5435  -24.2878 C.3     1  LEU1       -0.0447
      3 CD2       -20.0245   -4.8873  -23.6081 C.3     1  LEU1       -0.0626
      4 CB        -20.5319   -3.6900  -25.7142 C.3     1  LEU1       -0.0255
      5 CA        -21.9757   -4.1976  -25.8553 C.3     1  LEU1        0.0787
      6 C         -23.0566   -3.6113  -24.9524 C.2     1  LEU1        0.1404
      7 O         -23.1313   -2.4361  -24.6179 O.2     1  LEU1       -0.2991
      8 N         -22.3153   -4.0034  -27.2393 N.am    1  LEU1       -0.3044
      9 C         -22.0456   -4.9073  -28.1806 C.2     1  LEU1        0.2339
     10 O         -21.8483   -6.1004  -27.9416 O.2     1  LEU1       -0.2738
     11 CA        -21.9532   -4.3345  -29.5914 C.3     1  LEU1        0.0996
     12 CB        -23.3779   -3.9108  -29.9989 C.3     1  LEU1       -0.0236
     13 CG        -23.5308   -3.2952  -31.3941 C.3     1  LEU1       -0.0446
     14 CD1       -22.4315   -2.2829  -31.7412 C.3     1  LEU1       -0.0626
     15 CD2       -24.9300   -2.6741  -31.4909 C.3     1  LEU1       -0.0626
     16 N         -21.4289   -5.3338  -30.5125 N.am    1  LEU1       -0.3025
     17 C         -20.1482   -5.7242  -30.5976 C.2     1  LEU1        0.2341
     18 O         -19.2275   -5.2095  -29.9610 O.2     1  LEU1       -0.2738
     19 CA        -19.8990   -6.9134  -31.5199 C.3     1  LEU1        0.1027
     20 CB        -19.2322   -8.0678  -30.7456 C.3     1  LEU1       -0.0235
     21 CG        -19.0376   -9.3530  -31.5846 C.3     1  LEU1       -0.0446
     22 CD1       -20.3636   -9.9254  -32.1203 C.3     1  LEU1       -0.0626
     23 CD2       -18.2854  -10.4169  -30.7739 C.3     1  LEU1       -0.0626
     24 N         -19.0282   -6.5043  -32.6091 N.am    1  LEU1       -0.2698
     25 C         -19.4812   -6.2448  -33.8815 C.2     0  UNK0        0.4012
     26 O         -20.6579   -6.2358  -34.2323 O.2     0  UNK0       -0.2265
     27 O         -18.4348   -6.0687  -34.6989 O.3     0  UNK0       -0.4456
     28 C         -18.6392   -6.0645  -36.1057 C.3     0  UNK0        0.1191
     29 C         -18.8109   -7.4699  -36.6581 C.ar    0  UNK0       -0.0103
     30 C         -17.6847   -8.1853  -37.1092 C.ar    0  UNK0       -0.0554
     31 C         -17.8243   -9.5049  -37.5804 C.ar    0  UNK0       -0.0614
     32 C         -19.0940  -10.1134  -37.6065 C.ar    0  UNK0       -0.0617
     33 C         -20.2256   -9.3968  -37.1740 C.ar    0  UNK0       -0.0614
     34 C         -20.0844   -8.0777  -36.7052 C.ar    0  UNK0       -0.0554
     35 HD11      -18.6782   -1.9961  -24.8316 H       1  LEU1        0.0232
     36 HD12      -18.4268   -2.6738  -23.2388 H       1  LEU1        0.0232
     37 HD13      -17.9072   -3.5854  -24.6602 H       1  LEU1        0.0232
     38 HG        -20.7068   -2.8861  -23.7289 H       1  LEU1        0.0296
     39 HD21      -21.0143   -5.3325  -23.5588 H       1  LEU1        0.0232
     40 HD22      -19.3455   -5.5900  -24.0925 H       1  LEU1        0.0232
     41 HD23      -19.6900   -4.7248  -22.5980 H       1  LEU1        0.0232
     42 HB1       -19.8636   -4.3720  -26.2445 H       1  LEU1        0.0290
     43 HB2       -20.4263   -2.7383  -26.2321 H       1  LEU1        0.0290
     44 HA        -21.9714   -5.2653  -25.6287 H       1  LEU1        0.0574
     45 H         -23.7879   -4.3531  -24.6375 H       1  LEU1        0.1046
     46 H         -22.5275   -3.0584  -27.5271 H       1  LEU1        0.1494
     47 HA        -21.2855   -3.4714  -29.5630 H       1  LEU1        0.0594
     48 HB1       -23.7424   -3.1769  -29.2789 H       1  LEU1        0.0290
     49 HB2       -24.0587   -4.7605  -29.9166 H       1  LEU1        0.0290
     50 HG        -23.4605   -4.0921  -32.1308 H       1  LEU1        0.0296
     51 HD11      -22.5550   -1.9372  -32.7607 H       1  LEU1        0.0232
     52 HD12      -22.4364   -1.4215  -31.0740 H       1  LEU1        0.0232
     53 HD13      -21.4462   -2.7415  -31.7132 H       1  LEU1        0.0232
     54 HD21      -25.1189   -2.2491  -32.4665 H       1  LEU1        0.0232
     55 HD22      -25.7059   -3.4153  -31.2997 H       1  LEU1        0.0232
     56 HD23      -25.0575   -1.8687  -30.7673 H       1  LEU1        0.0232
     57 H         -22.1145   -5.8522  -31.0453 H       1  LEU1        0.1495
     58 HA        -20.8609   -7.2532  -31.9040 H       1  LEU1        0.0596
     59 HB1       -19.8340   -8.3089  -29.8674 H       1  LEU1        0.0290
     60 HB2       -18.2627   -7.7409  -30.3634 H       1  LEU1        0.0290
     61 HG        -18.4108   -9.1135  -32.4443 H       1  LEU1        0.0296
     62 HD11      -20.1989  -10.8738  -32.6318 H       1  LEU1        0.0232
     63 HD12      -21.0739  -10.1049  -31.3125 H       1  LEU1        0.0232
     64 HD13      -20.8355   -9.2592  -32.8427 H       1  LEU1        0.0232
     65 HD21      -18.0897  -11.3060  -31.3734 H       1  LEU1        0.0232
     66 HD22      -17.3233  -10.0385  -30.4266 H       1  LEU1        0.0232
     67 HD23      -18.8567  -10.7256  -29.8977 H       1  LEU1        0.0232
     68 H         -18.0284   -6.4543  -32.4544 H       1  LEU1        0.1528
     69 H         -17.7618   -5.6147  -36.5695 H       0  UNK0        0.0749
     70 H         -19.4926   -5.4410  -36.3779 H       0  UNK0        0.0749
     71 H         -16.7114   -7.7214  -37.0974 H       0  UNK0        0.0621
     72 H         -16.9573  -10.0489  -37.9251 H       0  UNK0        0.0618
     73 H         -19.2020  -11.1252  -37.9681 H       0  UNK0        0.0618
     74 H         -21.2027   -9.8553  -37.2014 H       0  UNK0        0.0618
     75 H         -20.9599   -7.5381  -36.3799 H       0  UNK0        0.0621
@<TRIPOS>BOND
     1     1     2    1
     2     1    35    1
     3     1    36    1
     4     1    37    1
     5     2     3    1
     6     2     4    1
     7     2    38    1
     8     3    39    1
     9     3    40    1
    10     3    41    1
    11     4     5    1
    12     4    42    1
    13     4    43    1
    14     5     6    1
    15     5     8    1
    16     5    44    1
    17     6     7    2
    18     6    45    1
    19     8     9   am
    20     8    46    1
    21     9    10    2
    22     9    11    1
    23    11    12    1
    24    11    16    1
    25    11    47    1
    26    12    13    1
    27    12    48    1
    28    12    49    1
    29    13    14    1
    30    13    15    1
    31    13    50    1
    32    14    51    1
    33    14    52    1
    34    14    53    1
    35    15    54    1
    36    15    55    1
    37    15    56    1
    38    16    17   am
    39    16    57    1
    40    17    18    2
    41    17    19    1
    42    19    20    1
    43    19    24    1
    44    19    58    1
    45    20    21    1
    46    20    59    1
    47    20    60    1
    48    21    22    1
    49    21    23    1
    50    21    61    1
    51    22    62    1
    52    22    63    1
    53    22    64    1
    54    23    65    1
    55    23    66    1
    56    23    67    1
    57    24    25   am
    58    24    68    1
    59    25    26    2
    60    25    27    1
    61    27    28    1
    62    28    29    1
    63    28    69    1
    64    28    70    1
    65    29    34   ar
    66    29    30   ar
    67    30    31   ar
    68    30    71    1
    69    31    32   ar
    70    31    72    1
    71    32    33   ar
    72    32    73    1
    73    33    34   ar
    74    33    74    1
    75    34    75    1
