@<TRIPOS>MOLECULE
/home/lixiaoshuang.lxs/med/data/m_pro/PDB_BA/3snd/3snd_ligand.pdb
 17 16 0 0 0
SMALL
GASTEIGER

@<TRIPOS>ATOM
      1  N        -17.3060  -30.9410    5.4030 N.3     4  LEU4       -0.1231
      2  CA       -17.9530  -30.0670    6.4930 C.3     4  LEU4        0.1693
      3  C        -17.0460  -28.9820    7.1200 C.2     4  LEU4        0.2588
      4  O        -16.5350  -29.0330    8.2720 O.2     4  LEU4       -0.2718
      5  CB       -18.6260  -30.9160    7.5850 C.3     4  LEU4        0.0284
      6  CG       -19.9320  -30.3270    8.1780 C.3     4  LEU4        0.0019
      7  CD1      -21.1280  -30.4290    7.1740 C.3     4  LEU4        0.0001
      8  CD2      -20.3300  -30.9150    9.5430 C.3     4  LEU4        0.0001
      9  C        -15.4050  -26.0990    7.1100 C.3     5  ECC5        0.2036
     10  N        -16.3340  -28.2700    6.3530 N.am    5  ECC5       -0.2033
     11  O        -14.3270  -25.1510    7.0140 O.3     5  ECC5       -0.2185
     12  CA       -15.1170  -27.4430    6.4340 C.3     5  ECC5        0.1287
     13  CB       -14.5590  -27.3270    5.0170 C.3     5  ECC5        0.0340
     14  CD       -13.7170  -28.6830    3.0990 C.2     5  ECC5        0.2608
     15  CG       -14.0290  -28.6940    4.5820 C.3     5  ECC5        0.0904
     16  OE1      -14.5300  -28.2720    2.2900 O.2     5  ECC5       -0.2717
     17  NE2      -12.5190  -29.1600    2.7340 N.am    5  ECC5       -0.0878
@<TRIPOS>BOND
     1    16    14    2
     2    17    14   am
     3    14    15    1
     4    15    13    1
     5    13    12    1
     6     1     2    1
     7    10    12    1
     8    10     3   am
     9    12     9    1
    10     2     3    1
    11     2     5    1
    12    11     9    1
    13     3     4    2
    14     7     6    1
    15     5     6    1
    16     6     8    1
