@<TRIPOS>MOLECULE
/home/lixiaoshuang.lxs/med/data/m_pro/PDB_BA/2gz7/2gz7_ligand.pdb
 28 29 0 0 0
SMALL
GASTEIGER

@<TRIPOS>ATOM
      1  C1       -22.9720  -45.6860    4.9680 C.ar  307  D3F307      0.0546
      2  C2       -23.3970  -45.4080    3.6950 C.ar  307  D3F307      0.0238
      3  C3       -24.0820  -44.2520    3.4050 C.ar  307  D3F307      0.0759
      4  C4       -24.3950  -43.3220    4.3830 C.ar  307  D3F307      0.1206
      5  C5       -23.9920  -43.6380    5.6900 C.ar  307  D3F307      0.0162
      6  C6       -23.3000  -44.8010    5.9990 C.ar  307  D3F307     -0.0099
      7  C7       -22.9010  -45.1640    7.4390 C.3   307  D3F307      0.0320
      8  S1       -25.2470  -41.8360    4.0400 S.O2  307  D3F307      0.0314
      9  O1       -26.7040  -42.2010    3.8130 O.2   307  D3F307     -0.1641
     10  O2       -24.7050  -41.4140    2.6720 O.2   307  D3F307     -0.1641
     11  C8       -25.1290  -40.4510    5.1270 C.ar  307  D3F307      0.1549
     12  C9       -25.2910  -40.5770    6.5120 C.ar  307  D3F307      0.1618
     13  C10      -25.2840  -39.4700    7.3630 C.ar  307  D3F307      0.0294
     14  C11      -25.1020  -38.1880    6.8510 C.ar  307  D3F307      0.0748
     15  C12      -24.9200  -38.0480    5.4780 C.ar  307  D3F307      0.0294
     16  C13      -24.9290  -39.1560    4.6270 C.ar  307  D3F307      0.1618
     17  N1       -24.7270  -38.9480    3.3210 N.pl3 307  D3F307      0.0590
     18  O3       -25.8380  -38.9730    2.4170 O.2   307  D3F307     -0.1261
     19  O4       -23.4020  -38.6880    2.8340 O.2   307  D3F307     -0.1261
     20  C14      -25.0800  -36.9690    7.7920 C.3   307  D3F307      0.4187
     21  F1       -24.7940  -35.8630    7.0910 F     307  D3F307     -0.1659
     22  F2       -26.2530  -36.8170    8.4450 F     307  D3F307     -0.1659
     23  F3       -24.1150  -37.1370    8.7080 F     307  D3F307     -0.1659
     24  N2       -25.4380  -41.7700    7.0830 N.pl3 307  D3F307      0.0590
     25  O5       -26.6830  -42.4590    6.9510 O.2   307  D3F307     -0.1261
     26  O6       -24.3480  -42.3630    7.7950 O.2   307  D3F307     -0.1261
     27  CL1      -24.8170  -43.8210    2.1090 Cl    307  D3F307     -0.0809
     28  CL2      -22.0230  -47.0860    5.2810 Cl    307  D3F307     -0.0825
@<TRIPOS>BOND
     1    27     3    1
     2    18    17    2
     3    10     8    2
     4    19    17    2
     5    17    16    1
     6     3     2   ar
     7     3     4   ar
     8     2     1   ar
     9     9     8    2
    10     8     4    1
    11     8    11    1
    12     4     5   ar
    13    16    11   ar
    14    16    15   ar
    15     1    28    1
    16     1     6   ar
    17    11    12   ar
    18    15    14   ar
    19     5     6   ar
    20     6     7    1
    21    12    24    1
    22    12    13   ar
    23    14    13   ar
    24    14    20    1
    25    25    24    2
    26    24    26    2
    27    21    20    1
    28    20    22    1
    29    20    23    1
