
                    3D
 Schrodinger Suite 2019-4.
 30 32  0  0  1  0            999 V2000
  -19.7424   -5.1649  -29.0287 O   0  0  0  0  0  0
  -20.8313   -4.7624  -28.6183 C   0  0  0  0  0  0
  -21.9613   -4.4721  -29.4842 C   0  0  0  0  0  0
  -23.1390   -4.0170  -29.0050 C   0  0  0  0  0  0
  -24.3225   -3.6288  -29.8189 C   0  0  0  0  0  0
  -24.2032   -3.3222  -31.1844 C   0  0  0  0  0  0
  -25.3187   -2.9367  -31.9240 C   0  0  0  0  0  0
  -26.5636   -2.8572  -31.3061 C   0  0  0  0  0  0
  -27.6601   -2.4533  -32.0154 O   0  0  0  0  0  0
  -26.7035   -3.1766  -29.9619 C   0  0  0  0  0  0
  -25.5909   -3.5619  -29.2230 C   0  0  0  0  0  0
  -23.3556   -3.7764  -27.6841 O   0  0  0  0  0  0
  -22.3466   -4.0266  -26.7814 C   0  0  0  0  0  0
  -22.6580   -3.7773  -25.4513 C   0  0  0  0  0  0
  -21.6873   -3.9620  -24.4818 C   0  0  0  0  0  0
  -21.9805   -3.6762  -23.1840 O   0  0  0  0  0  0
  -20.4186   -4.4074  -24.8339 C   0  0  0  0  0  0
  -20.1174   -4.6899  -26.1641 C   0  0  0  0  0  0
  -18.8607   -5.1590  -26.4449 O   0  0  0  0  0  0
  -21.0831   -4.4973  -27.1686 C   0  0  0  0  0  0
  -21.8400   -4.6420  -30.5419 H   0  0  0  0  0  0
  -23.2411   -3.3617  -31.6797 H   0  0  0  0  0  0
  -25.2117   -2.6916  -32.9689 H   0  0  0  0  0  0
  -27.4631   -2.2756  -32.9371 H   0  0  0  0  0  0
  -27.6741   -3.1231  -29.4893 H   0  0  0  0  0  0
  -25.7235   -3.8078  -28.1786 H   0  0  0  0  0  0
  -23.6445   -3.4223  -25.2006 H   0  0  0  0  0  0
  -22.8971   -3.4084  -23.0922 H   0  0  0  0  0  0
  -19.6651   -4.5418  -24.0729 H   0  0  0  0  0  0
  -18.7863   -5.3550  -27.3863 H   0  0  0  0  0  0
  1  2  2  0  0  0
  2 20  1  0  0  0
  2  3  1  0  0  0
  3  4  2  0  0  0
  3 21  1  0  0  0
  4  5  1  0  0  0
  4 12  1  0  0  0
  5 11  1  0  0  0
  5  6  2  0  0  0
  6  7  1  0  0  0
  6 22  1  0  0  0
  7  8  2  0  0  0
  7 23  1  0  0  0
  8  9  1  0  0  0
  8 10  1  0  0  0
  9 24  1  0  0  0
 10 11  2  0  0  0
 10 25  1  0  0  0
 11 26  1  0  0  0
 12 13  1  0  0  0
 13 20  2  0  0  0
 13 14  1  0  0  0
 14 15  2  0  0  0
 14 27  1  0  0  0
 15 16  1  0  0  0
 15 17  1  0  0  0
 16 28  1  0  0  0
 17 18  2  0  0  0
 17 29  1  0  0  0
 18 19  1  0  0  0
 18 20  1  0  0  0
 19 30  1  0  0  0
M  END
$$$$
