@<TRIPOS>MOLECULE
*****
 30 32 0 0 0
SMALL
GASTEIGER
****
Schrodinger Suite 2019-4.
@<TRIPOS>ATOM
      1 O         -19.7424   -5.1649  -29.0287 O.2     1  UNL1       -0.2869
      2 C         -20.8313   -4.7624  -28.6183 C.ar    1  UNL1        0.1966
      3 C         -21.9613   -4.4721  -29.4842 C.ar    1  UNL1        0.0288
      4 C         -23.1390   -4.0170  -29.0050 C.ar    1  UNL1        0.1392
      5 C         -24.3225   -3.6288  -29.8189 C.ar    1  UNL1        0.0176
      6 C         -24.2032   -3.3222  -31.1844 C.ar    1  UNL1       -0.0476
      7 C         -25.3187   -2.9367  -31.9240 C.ar    1  UNL1       -0.0195
      8 C         -26.5636   -2.8572  -31.3061 C.ar    1  UNL1        0.1169
      9 O         -27.6601   -2.4533  -32.0154 O.3     1  UNL1       -0.5068
     10 C         -26.7035   -3.1766  -29.9619 C.ar    1  UNL1       -0.0195
     11 C         -25.5909   -3.5619  -29.2230 C.ar    1  UNL1       -0.0476
     12 O         -23.3556   -3.7764  -27.6841 O.2     1  UNL1       -0.4544
     13 C         -22.3466   -4.0266  -26.7814 C.ar    1  UNL1        0.1462
     14 C         -22.6580   -3.7773  -25.4513 C.ar    1  UNL1        0.0231
     15 C         -21.6873   -3.9620  -24.4818 C.ar    1  UNL1        0.1239
     16 O         -21.9805   -3.6762  -23.1840 O.3     1  UNL1       -0.5065
     17 C         -20.4186   -4.4074  -24.8339 C.ar    1  UNL1        0.0223
     18 C         -20.1174   -4.6899  -26.1641 C.ar    1  UNL1        0.1347
     19 O         -18.8607   -5.1590  -26.4449 O.3     1  UNL1       -0.5058
     20 C         -21.0831   -4.4973  -27.1686 C.ar    1  UNL1        0.1055
     21 H         -21.8400   -4.6420  -30.5419 H       1  UNL1        0.0693
     22 H         -23.2411   -3.3617  -31.6797 H       1  UNL1        0.0626
     23 H         -25.2117   -2.6916  -32.9689 H       1  UNL1        0.0654
     24 H         -27.4631   -2.2756  -32.9371 H       1  UNL1        0.2921
     25 H         -27.6741   -3.1231  -29.4893 H       1  UNL1        0.0654
     26 H         -25.7235   -3.8078  -28.1786 H       1  UNL1        0.0626
     27 H         -23.6445   -3.4223  -25.2006 H       1  UNL1        0.0691
     28 H         -22.8971   -3.4084  -23.0922 H       1  UNL1        0.2921
     29 H         -19.6651   -4.5418  -24.0729 H       1  UNL1        0.0691
     30 H         -18.7863   -5.3550  -27.3863 H       1  UNL1        0.2922
@<TRIPOS>BOND
     1     1     2    2
     2     2    20   ar
     3     2     3   ar
     4     3     4   ar
     5     3    21    1
     6     4     5    1
     7     4    12   ar
     8     5    11   ar
     9     5     6   ar
    10     6     7   ar
    11     6    22    1
    12     7     8   ar
    13     7    23    1
    14     8     9    1
    15     8    10   ar
    16     9    24    1
    17    10    11   ar
    18    10    25    1
    19    11    26    1
    20    12    13   ar
    21    13    20   ar
    22    13    14   ar
    23    14    15   ar
    24    14    27    1
    25    15    16    1
    26    15    17   ar
    27    16    28    1
    28    17    18   ar
    29    17    29    1
    30    18    19    1
    31    18    20   ar
    32    19    30    1
