@<TRIPOS>MOLECULE
/home/lixiaoshuang.lxs/med/data/m_pro/PDB_BA/3aw0/3aw0_ligand.pdb
 39 39 0 0 0
SMALL
GASTEIGER

@<TRIPOS>ATOM
      1  C        -27.3610  -30.1340    5.7140 C.2     1  ACE1        0.2423
      2  O        -27.2580  -30.1760    6.9490 O.2     1  ACE1       -0.2733
      3  CH3      -27.5350  -28.8320    4.9450 C.3     1  ACE1        0.0964
      4  N        -27.5090  -31.2680    5.0110 N.am    2  SER2       -0.1950
      5  CA       -27.4930  -32.6210    5.5990 C.3     2  SER2        0.2054
      6  C        -26.1150  -33.3010    5.5080 C.2     2  SER2        0.2643
      7  O        -25.3150  -33.0490    4.5900 O.2     2  SER2       -0.2714
      8  CB       -28.5570  -33.5370    4.9270 C.3     2  SER2        0.2130
      9  OG       -29.8800  -33.2670    5.3760 O.3     2  SER2       -0.2179
     10  N        -25.8580  -34.1830    6.4670 N.am    3  ALA3       -0.1963
     11  CA       -24.8080  -35.1900    6.3170 C.3     3  ALA3        0.1728
     12  C        -25.2010  -36.1950    5.2090 C.2     3  ALA3        0.2616
     13  O        -26.3970  -36.3810    4.9220 O.2     3  ALA3       -0.2715
     14  CB       -24.5810  -35.8930    7.6300 C.3     3  ALA3        0.0334
     15  N        -24.2020  -36.8140    4.5770 N.am    4  VAL4       -0.1963
     16  CA       -24.4390  -37.8110    3.5290 C.3     4  VAL4        0.1727
     17  C        -23.6720  -39.0880    3.8930 C.2     4  VAL4        0.2616
     18  O        -22.4500  -39.1000    3.9890 O.2     4  VAL4       -0.2715
     19  CB       -24.0740  -37.2800    2.0710 C.3     4  VAL4        0.0290
     20  CG1      -24.0590  -38.4200    1.0050 C.3     4  VAL4        0.0023
     21  CG2      -25.0050  -36.1150    1.6370 C.3     4  VAL4        0.0023
     22  N        -24.4030  -40.1790    4.0930 N.am    5  LEU5       -0.1963
     23  CA       -23.7730  -41.4540    4.4180 C.3     5  LEU5        0.1728
     24  C        -23.2920  -42.1570    3.1510 C.2     5  LEU5        0.2616
     25  O        -24.1020  -42.5780    2.3260 O.2     5  LEU5       -0.2715
     26  CB       -24.7450  -42.3540    5.1830 C.3     5  LEU5        0.0311
     27  CG       -25.3030  -41.7890    6.4910 C.3     5  LEU5        0.0022
     28  CD1      -26.1440  -42.8320    7.2120 C.3     5  LEU5        0.0001
     29  CD2      -24.1780  -41.2900    7.3850 C.3     5  LEU5        0.0001
     30  N        -21.9760  -42.2830    2.9950 N.am    6  HSV6       -0.1973
     31  CA       -21.4250  -42.9160    1.7940 C.3     6  HSV6        0.1656
     32  CB       -19.9510  -42.5330    1.6080 C.3     6  HSV6        0.0771
     33  CG       -19.7420  -41.1060    1.1920 C.ar    6  HSV6        0.0820
     34  ND1      -18.8110  -40.2850    1.7870 N.ar    6  HSV6       -0.2267
     35  CD2      -20.3290  -40.3620    0.2230 C.ar    6  HSV6        0.1154
     36  CE1      -18.8240  -39.1030    1.1990 C.ar    6  HSV6        0.1986
     37  NE2      -19.7380  -39.1220    0.2480 N.ar    6  HSV6       -0.2212
     38  C        -21.6850  -44.4520    1.8610 C.2     6  HSV6        0.2291
     39  O        -20.8920  -45.2900    1.4270 O.2     6  HSV6       -0.2864
@<TRIPOS>BOND
     1    35    37   ar
     2    35    33   ar
     3    37    36   ar
     4    20    19    1
     5    33    32    1
     6    33    34   ar
     7    36    34   ar
     8    39    38    2
     9    32    31    1
    10    21    19    1
    11    31    38    1
    12    31    30    1
    13    19    16    1
    14    25    24    2
    15    30    24   am
    16    24    23    1
    17    16    17    1
    18    16    15    1
    19    17    18    2
    20    17    22   am
    21    22    23    1
    22    23    26    1
    23    15    12   am
    24     7     6    2
    25    13    12    2
    26     8     9    1
    27     8     5    1
    28     3     1    1
    29     4     5    1
    30     4     1   am
    31    26    27    1
    32    12    11    1
    33     6     5    1
    34     6    10   am
    35     1     2    2
    36    11    10    1
    37    11    14    1
    38    27    28    1
    39    27    29    1
