@<TRIPOS>MOLECULE
/home/lixiaoshuang.lxs/med/data/m_pro/PDB_BA/2v6n/2v6n_ligand.pdb
 11 11 0 0 0
SMALL
GASTEIGER

@<TRIPOS>ATOM
      1  CAG      -19.2470  -40.3620  -20.4190 C.3   2307  XP12307     0.1122
      2  NAF      -18.6060  -41.2770  -19.4380 N.pl3 2307  XP12307    -0.3041
      3  CAK      -18.8750  -41.0490  -18.0070 C.3   2307  XP12307     0.1122
      4  CAE      -17.7690  -42.3060  -19.7860 C.ar  2307  XP12307     0.0479
      5  CAJ      -17.4520  -42.5650  -21.1180 C.ar  2307  XP12307     0.0146
      6  CAI      -16.5990  -43.6260  -21.4510 C.ar  2307  XP12307     0.0046
      7  CAD      -16.0400  -44.4240  -20.4350 C.ar  2307  XP12307     0.0423
      8  CAC      -15.1010  -45.5650  -20.8110 C.2   2307  XP12307     0.2342
      9  OAH      -14.6400  -46.3000  -19.9350 O.2   2307  XP12307    -0.2831
     10  CAA      -16.3300  -44.1800  -19.0840 C.ar  2307  XP12307     0.0046
     11  CAB      -17.2040  -43.1270  -18.7800 C.ar  2307  XP12307     0.0146
@<TRIPOS>BOND
     1     6     5   ar
     2     6     7   ar
     3     5     4   ar
     4     8     7    1
     5     8     9    2
     6     7    10   ar
     7     1     2    1
     8     4     2    1
     9     4    11   ar
    10     2     3    1
    11    10    11   ar
