@<TRIPOS>MOLECULE
/home/lixiaoshuang.lxs/med/data/m_pro/PDB_BA/1wof/1wof_ligand.pdb
 44 45 0 0 0
SMALL
GASTEIGER

@<TRIPOS>ATOM
      1  N1       100.6190    7.1790   -3.5750 N.ar  1145  I121145    -0.0726
      2  C1        99.4160    7.0450   -3.1050 C.ar  1145  I121145     0.1774
      3  C2        98.6220    6.3770   -4.0940 C.ar  1145  I121145     0.0627
      4  C3        99.4380    6.1410   -5.1650 C.ar  1145  I121145     0.1550
      5  C4        99.0490    5.4660   -6.4420 C.3   1145  I121145     0.0754
      6  O1       100.6860    6.6090   -4.9150 O.2   1145  I121145    -0.3576
      7  C5        98.8890    7.4850   -1.7900 C.2   1145  I121145     0.2862
      8  O2        97.7210    7.3630   -1.4590 O.2   1145  I121145    -0.2666
      9  N2        99.7320    8.0170   -0.9550 N.am  1145  I121145    -0.1926
     10  C6        99.6080    8.5040    0.4450 C.3   1145  I121145     0.1732
     11  C7        98.6080    9.6520    0.5550 C.2   1145  I121145     0.2616
     12  O3        98.5910   10.5540   -0.2890 O.2   1145  I121145    -0.2715
     13  C8       100.9680    8.9660    0.9830 C.3   1145  I121145     0.0334
     14  N3        97.7840    9.6140    1.6030 N.am  1145  I121145    -0.1963
     15  C9        96.8140   10.6630    1.8760 C.3   1145  I121145     0.1727
     16  C10       95.3850   10.1690    1.6530 C.3   1145  I121145     0.0290
     17  C11       94.4090   11.1860    2.1830 C.3   1145  I121145     0.0023
     18  C12       95.1380    9.9330    0.1630 C.3   1145  I121145     0.0023
     19  C13       96.9500   11.0710    3.3400 C.2   1145  I121145     0.2616
     20  O4        96.8440   10.2290    4.2300 O.2   1145  I121145    -0.2715
     21  N4        97.1870   12.3520    3.5940 N.am  1145  I121145    -0.1963
     22  C14       97.3050   12.8150    4.9660 C.3   1145  I121145     0.1728
     23  C15       97.8800   14.2330    4.9960 C.3   1145  I121145     0.0311
     24  C16       99.2590   14.3830    4.3520 C.3   1145  I121145     0.0022
     25  C17      100.2390   13.4580    5.0600 C.3   1145  I121145     0.0001
     26  C18       99.7280   15.8300    4.4410 C.3   1145  I121145     0.0001
     27  C19       95.9070   12.7900    5.5850 C.2   1145  I121145     0.2612
     28  O5        94.9360   13.0840    4.8570 O.2   1145  I121145    -0.2715
     29  N5        95.7420   12.3320    6.6350 N.am  1145  I121145    -0.2057
     30  C20       94.4580   12.0050    7.3320 C.3   1145  I121145     0.0964
     31  C21       94.3440   13.0220    8.4960 C.3   1145  I121145     0.0333
     32  C22       94.1690   14.4730    7.9940 C.3   1145  I121145     0.1113
     33  C23       93.1650   15.2910    8.7960 C.2   1145  I121145     0.3170
     34  O6        92.5360   14.8760    9.7420 O.2   1145  I121145    -0.2501
     35  O7        93.0280   16.5350    8.2640 O.3   1145  I121145    -0.4485
     36  C24       92.0260   17.3610    8.8290 C.3   1145  I121145     0.2086
     37  C25       91.8790   18.6100    7.9660 C.3   1145  I121145     0.0513
     38  C26       93.9840   10.5810    7.7070 C.3   1145  I121145     0.0309
     39  C27       93.4270    9.8150    6.5370 C.3   1145  I121145     0.0817
     40  C28       92.0100   10.1560    6.1690 C.3   1145  I121145     0.0326
     41  C29       91.6290    8.8880    5.4060 C.3   1145  I121145     0.1156
     42  N6        92.1750    7.9070    6.3340 N.am  1145  I121145    -0.2054
     43  C30       93.2140    8.4000    7.0200 C.2   1145  I121145     0.2410
     44  O8        93.8400    7.7830    7.8470 O.2   1145  I121145    -0.2734
@<TRIPOS>BOND
     1     5     4    1
     2     4     6   ar
     3     4     3   ar
     4     6     1   ar
     5     3     2   ar
     6     1     2   ar
     7     2     7    1
     8     7     8    2
     9     7     9   am
    10     9    10    1
    11    12    11    2
    12    18    16    1
    13    10    11    1
    14    10    13    1
    15    11    14   am
    16    14    15    1
    17    16    15    1
    18    16    17    1
    19    15    19    1
    20    19    21   am
    21    19    20    2
    22    21    22    1
    23    24    26    1
    24    24    23    1
    25    24    25    1
    26    28    27    2
    27    22    23    1
    28    22    27    1
    29    41    40    1
    30    41    42    1
    31    27    29   am
    32    40    39    1
    33    42    43   am
    34    39    43    1
    35    39    38    1
    36    29    30    1
    37    43    44    2
    38    30    38    1
    39    30    31    1
    40    37    36    1
    41    32    31    1
    42    32    33    1
    43    35    33    1
    44    35    36    1
    45    33    34    2
