@<TRIPOS>MOLECULE
*****
 91 94 0 0 0
SMALL
GASTEIGER
****
Schrodinger Suite 2019-4.
@<TRIPOS>ATOM
      1 C         -22.0797  -11.9742  -35.1574 C.3     1  UNL1       -0.0253
      2 C         -20.9646  -10.9117  -35.2289 C.3     1  UNL1        0.1068
      3 C         -19.5945  -11.6287  -35.3032 C.3     1  UNL1       -0.0253
      4 C         -21.1962  -10.0293  -36.4820 C.3     1  UNL1       -0.0253
      5 O         -21.0908  -10.1522  -34.0093 O.3     1  UNL1       -0.4444
      6 C         -20.3012   -9.0900  -33.6848 C.2     1  UNL1        0.4052
      7 O         -19.4095   -8.6383  -34.4004 O.2     1  UNL1       -0.2261
      8 N         -20.7017   -8.5803  -32.4541 N.am    1  UNL1       -0.2463
      9 C         -20.2569   -7.4517  -31.8007 C.ar    1  UNL1        0.1013
     10 C         -19.0679   -6.8455  -32.0897 C.ar    1  UNL1       -0.0337
     11 C         -18.7040   -5.6155  -31.4239 C.ar    1  UNL1       -0.0435
     12 C         -19.5874   -5.1234  -30.5452 C.ar    1  UNL1        0.0089
     13 N         -20.8076   -5.6837  -30.2339 N.ar    1  UNL1       -0.3018
     14 C         -21.7570   -4.9242  -29.3869 C.3     1  UNL1        0.1134
     15 C         -23.1560   -4.6763  -30.0073 C.3     1  UNL1       -0.0207
     16 C         -23.7508   -3.3179  -29.5918 C.3     1  UNL1       -0.0387
     17 C         -25.2463   -3.2857  -29.9948 C.3     1  UNL1       -0.0501
     18 C         -25.7526   -1.8479  -30.0195 C.3     1  UNL1       -0.0528
     19 C         -25.0610   -0.9757  -31.0768 C.3     1  UNL1       -0.0530
     20 C         -23.5968   -1.3778  -31.3430 C.3     1  UNL1       -0.0528
     21 C         -22.9466   -2.0971  -30.1497 C.3     1  UNL1       -0.0501
     22 C         -21.7556   -5.4272  -27.9311 C.2     1  UNL1        0.2366
     23 O         -22.6134   -6.2117  -27.5204 O.2     1  UNL1       -0.2735
     24 N         -20.8136   -4.8821  -27.1409 N.am    1  UNL1       -0.3034
     25 C         -20.7821   -4.8943  -25.6706 C.3     1  UNL1        0.0914
     26 C         -19.3366   -4.6287  -25.1586 C.3     1  UNL1       -0.0159
     27 C         -18.3134   -5.7106  -25.6050 C.3     1  UNL1        0.0390
     28 C         -18.5313   -7.0943  -25.0061 C.3     1  UNL1       -0.0262
     29 C         -17.1324   -7.6745  -24.9221 C.3     1  UNL1        0.0123
     30 N         -16.3050   -6.4836  -24.8005 N.am    1  UNL1       -0.3151
     31 C         -16.8812   -5.3394  -25.1993 C.2     1  UNL1        0.2162
     32 O         -16.3644   -4.2270  -25.2646 O.2     1  UNL1       -0.2755
     33 C         -21.7809   -3.8271  -25.1825 C.2     1  UNL1        0.2372
     34 O         -22.3106   -2.9665  -25.8982 O.2     1  UNL1       -0.2852
     35 C         -22.1953   -3.9257  -23.6649 C.2     1  UNL1        0.2817
     36 O         -21.3783   -4.2280  -22.8000 O.2     1  UNL1       -0.2670
     37 N         -23.5016   -3.6674  -23.4627 N.am    1  UNL1       -0.3048
     38 C         -24.1980   -3.8860  -22.1906 C.3     1  UNL1        0.0372
     39 C         -24.4049   -5.3580  -21.8214 C.ar    1  UNL1       -0.0303
     40 C         -24.6522   -6.3171  -22.8109 C.ar    1  UNL1       -0.0571
     41 C         -24.8002   -7.6576  -22.4657 C.ar    1  UNL1       -0.0615
     42 C         -24.7000   -8.0393  -21.1315 C.ar    1  UNL1       -0.0617
     43 C         -24.4507   -7.0952  -20.1389 C.ar    1  UNL1       -0.0615
     44 C         -24.3021   -5.7556  -20.4862 C.ar    1  UNL1       -0.0571
     45 C         -21.1831   -6.9020  -30.7888 C.ar    1  UNL1        0.2734
     46 O         -22.2281   -7.4850  -30.4847 O.2     1  UNL1       -0.2656
     47 H         -23.0700  -11.5231  -35.2059 H       1  UNL1        0.0268
     48 H         -22.0135  -12.6821  -35.9850 H       1  UNL1        0.0268
     49 H         -22.0230  -12.5521  -34.2338 H       1  UNL1        0.0268
     50 H         -18.7671  -10.9243  -35.4032 H       1  UNL1        0.0268
     51 H         -19.4079  -12.2179  -34.4044 H       1  UNL1        0.0268
     52 H         -19.5401  -12.3078  -36.1546 H       1  UNL1        0.0268
     53 H         -20.3933   -9.3101  -36.6397 H       1  UNL1        0.0268
     54 H         -21.2653  -10.6305  -37.3885 H       1  UNL1        0.0268
     55 H         -22.1192   -9.4582  -36.4005 H       1  UNL1        0.0268
     56 H         -21.4993   -9.0321  -32.0275 H       1  UNL1        0.1583
     57 H         -18.3740   -7.2396  -32.8142 H       1  UNL1        0.0638
     58 H         -17.7713   -5.1086  -31.6301 H       1  UNL1        0.0633
     59 H         -19.3803   -4.2266  -29.9810 H       1  UNL1        0.0810
     60 H         -21.3130   -3.9358  -29.3080 H       1  UNL1        0.0625
     61 H         -23.8349   -5.4909  -29.7515 H       1  UNL1        0.0293
     62 H         -23.0878   -4.6992  -31.0977 H       1  UNL1        0.0293
     63 H         -23.7226   -3.2331  -28.5029 H       1  UNL1        0.0302
     64 H         -25.8735   -3.9405  -29.3849 H       1  UNL1        0.0268
     65 H         -25.3529   -3.6444  -31.0207 H       1  UNL1        0.0268
     66 H         -25.5392   -1.4271  -29.0411 H       1  UNL1        0.0265
     67 H         -26.8276   -1.8270  -30.1548 H       1  UNL1        0.0265
     68 H         -25.1025    0.0668  -30.7616 H       1  UNL1        0.0265
     69 H         -25.6324   -1.0269  -32.0003 H       1  UNL1        0.0265
     70 H         -23.0086   -0.4962  -31.5993 H       1  UNL1        0.0265
     71 H         -23.5537   -2.0367  -32.2128 H       1  UNL1        0.0265
     72 H         -21.8859   -2.2883  -30.3128 H       1  UNL1        0.0268
     73 H         -22.9143   -1.3565  -29.3494 H       1  UNL1        0.0268
     74 H         -20.1498   -4.2494  -27.5609 H       1  UNL1        0.1495
     75 H         -21.1004   -5.8800  -25.3198 H       1  UNL1        0.0583
     76 H         -19.3076   -4.5688  -24.0700 H       1  UNL1        0.0295
     77 H         -19.0089   -3.6495  -25.5165 H       1  UNL1        0.0295
     78 H         -18.2998   -5.7678  -26.6952 H       1  UNL1        0.0395
     79 H         -19.2114   -7.7238  -25.5825 H       1  UNL1        0.0288
     80 H         -18.9493   -7.0139  -24.0001 H       1  UNL1        0.0288
     81 H         -16.8568   -8.2297  -25.8222 H       1  UNL1        0.0462
     82 H         -17.0112   -8.3309  -24.0597 H       1  UNL1        0.0462
     83 H         -15.3046   -6.5496  -24.6272 H       1  UNL1        0.1487
     84 H         -24.0927   -3.4872  -24.2691 H       1  UNL1        0.1494
     85 H         -25.1817   -3.4169  -22.2562 H       1  UNL1        0.0512
     86 H         -23.6626   -3.3670  -21.3905 H       1  UNL1        0.0512
     87 H         -24.7262   -6.0258  -23.8487 H       1  UNL1        0.0621
     88 H         -24.9851   -8.3956  -23.2338 H       1  UNL1        0.0618
     89 H         -24.8096   -9.0819  -20.8643 H       1  UNL1        0.0618
     90 H         -24.3664   -7.4020  -19.1056 H       1  UNL1        0.0618
     91 H         -24.0998   -5.0291  -19.7141 H       1  UNL1        0.0621
@<TRIPOS>BOND
     1     1     2    1
     2     1    47    1
     3     1    48    1
     4     1    49    1
     5     2     3    1
     6     2     4    1
     7     2     5    1
     8     3    50    1
     9     3    51    1
    10     3    52    1
    11     4    53    1
    12     4    54    1
    13     4    55    1
    14     5     6    1
    15     6     7    2
    16     6     8   am
    17     8     9    1
    18     8    56    1
    19     9    45   ar
    20     9    10   ar
    21    10    11   ar
    22    10    57    1
    23    11    12   ar
    24    11    58    1
    25    12    13   ar
    26    12    59    1
    27    13    14    1
    28    13    45   ar
    29    14    15    1
    30    14    22    1
    31    14    60    1
    32    15    16    1
    33    15    61    1
    34    15    62    1
    35    16    21    1
    36    16    17    1
    37    16    63    1
    38    17    18    1
    39    17    64    1
    40    17    65    1
    41    18    19    1
    42    18    66    1
    43    18    67    1
    44    19    20    1
    45    19    68    1
    46    19    69    1
    47    20    21    1
    48    20    70    1
    49    20    71    1
    50    21    72    1
    51    21    73    1
    52    22    23    2
    53    22    24   am
    54    24    25    1
    55    24    74    1
    56    25    26    1
    57    25    33    1
    58    25    75    1
    59    26    27    1
    60    26    76    1
    61    26    77    1
    62    27    31    1
    63    27    28    1
    64    27    78    1
    65    28    29    1
    66    28    79    1
    67    28    80    1
    68    29    30    1
    69    29    81    1
    70    29    82    1
    71    30    31   am
    72    30    83    1
    73    31    32    2
    74    33    34    2
    75    33    35    1
    76    35    36    2
    77    35    37   am
    78    37    38    1
    79    37    84    1
    80    38    39    1
    81    38    85    1
    82    38    86    1
    83    39    44   ar
    84    39    40   ar
    85    40    41   ar
    86    40    87    1
    87    41    42   ar
    88    41    88    1
    89    42    43   ar
    90    42    89    1
    91    43    44   ar
    92    43    90    1
    93    44    91    1
    94    45    46    2
