
                    3D
 Schrodinger Suite 2019-4.
 91 94  0  0  1  0            999 V2000
  -22.0797  -11.9742  -35.1574 C   0  0  0  0  0  0
  -20.9646  -10.9117  -35.2289 C   0  0  0  0  0  0
  -19.5945  -11.6287  -35.3032 C   0  0  0  0  0  0
  -21.1962  -10.0293  -36.4820 C   0  0  0  0  0  0
  -21.0908  -10.1522  -34.0093 O   0  0  0  0  0  0
  -20.3012   -9.0900  -33.6848 C   0  0  0  0  0  0
  -19.4095   -8.6383  -34.4004 O   0  0  0  0  0  0
  -20.7017   -8.5803  -32.4541 N   0  0  0  0  0  0
  -20.2569   -7.4517  -31.8007 C   0  0  0  0  0  0
  -19.0679   -6.8455  -32.0897 C   0  0  0  0  0  0
  -18.7040   -5.6155  -31.4239 C   0  0  0  0  0  0
  -19.5874   -5.1234  -30.5452 C   0  0  0  0  0  0
  -20.8076   -5.6837  -30.2339 N   0  0  0  0  0  0
  -21.7570   -4.9242  -29.3869 C   0  0  1  0  0  0
  -23.1560   -4.6763  -30.0073 C   0  0  0  0  0  0
  -23.7508   -3.3179  -29.5918 C   0  0  0  0  0  0
  -25.2463   -3.2857  -29.9948 C   0  0  0  0  0  0
  -25.7526   -1.8479  -30.0195 C   0  0  0  0  0  0
  -25.0610   -0.9757  -31.0768 C   0  0  0  0  0  0
  -23.5968   -1.3778  -31.3430 C   0  0  0  0  0  0
  -22.9466   -2.0971  -30.1497 C   0  0  0  0  0  0
  -21.7556   -5.4272  -27.9311 C   0  0  0  0  0  0
  -22.6134   -6.2117  -27.5204 O   0  0  0  0  0  0
  -20.8136   -4.8821  -27.1409 N   0  0  0  0  0  0
  -20.7821   -4.8943  -25.6706 C   0  0  1  0  0  0
  -19.3366   -4.6287  -25.1586 C   0  0  0  0  0  0
  -18.3134   -5.7106  -25.6050 C   0  0  2  0  0  0
  -18.5313   -7.0943  -25.0061 C   0  0  0  0  0  0
  -17.1324   -7.6745  -24.9221 C   0  0  0  0  0  0
  -16.3050   -6.4836  -24.8005 N   0  0  0  0  0  0
  -16.8812   -5.3394  -25.1993 C   0  0  0  0  0  0
  -16.3644   -4.2270  -25.2646 O   0  0  0  0  0  0
  -21.7809   -3.8271  -25.1825 C   0  0  0  0  0  0
  -22.3106   -2.9665  -25.8982 O   0  0  0  0  0  0
  -22.1953   -3.9257  -23.6649 C   0  0  0  0  0  0
  -21.3783   -4.2280  -22.8000 O   0  0  0  0  0  0
  -23.5016   -3.6674  -23.4627 N   0  0  0  0  0  0
  -24.1980   -3.8860  -22.1906 C   0  0  0  0  0  0
  -24.4049   -5.3580  -21.8214 C   0  0  0  0  0  0
  -24.6522   -6.3171  -22.8109 C   0  0  0  0  0  0
  -24.8002   -7.6576  -22.4657 C   0  0  0  0  0  0
  -24.7000   -8.0393  -21.1315 C   0  0  0  0  0  0
  -24.4507   -7.0952  -20.1389 C   0  0  0  0  0  0
  -24.3021   -5.7556  -20.4862 C   0  0  0  0  0  0
  -21.1831   -6.9020  -30.7888 C   0  0  0  0  0  0
  -22.2281   -7.4850  -30.4847 O   0  0  0  0  0  0
  -23.0700  -11.5231  -35.2059 H   0  0  0  0  0  0
  -22.0135  -12.6821  -35.9850 H   0  0  0  0  0  0
  -22.0230  -12.5521  -34.2338 H   0  0  0  0  0  0
  -18.7671  -10.9243  -35.4032 H   0  0  0  0  0  0
  -19.4079  -12.2179  -34.4044 H   0  0  0  0  0  0
  -19.5401  -12.3078  -36.1546 H   0  0  0  0  0  0
  -20.3933   -9.3101  -36.6397 H   0  0  0  0  0  0
  -21.2653  -10.6305  -37.3885 H   0  0  0  0  0  0
  -22.1192   -9.4582  -36.4005 H   0  0  0  0  0  0
  -21.4993   -9.0321  -32.0275 H   0  0  0  0  0  0
  -18.3740   -7.2396  -32.8142 H   0  0  0  0  0  0
  -17.7713   -5.1086  -31.6301 H   0  0  0  0  0  0
  -19.3803   -4.2266  -29.9810 H   0  0  0  0  0  0
  -21.3130   -3.9358  -29.3080 H   0  0  0  0  0  0
  -23.8349   -5.4909  -29.7515 H   0  0  0  0  0  0
  -23.0878   -4.6992  -31.0977 H   0  0  0  0  0  0
  -23.7226   -3.2331  -28.5029 H   0  0  0  0  0  0
  -25.8735   -3.9405  -29.3849 H   0  0  0  0  0  0
  -25.3529   -3.6444  -31.0207 H   0  0  0  0  0  0
  -25.5392   -1.4271  -29.0411 H   0  0  0  0  0  0
  -26.8276   -1.8270  -30.1548 H   0  0  0  0  0  0
  -25.1025    0.0668  -30.7616 H   0  0  0  0  0  0
  -25.6324   -1.0269  -32.0003 H   0  0  0  0  0  0
  -23.0086   -0.4962  -31.5993 H   0  0  0  0  0  0
  -23.5537   -2.0367  -32.2128 H   0  0  0  0  0  0
  -21.8859   -2.2883  -30.3128 H   0  0  0  0  0  0
  -22.9143   -1.3565  -29.3494 H   0  0  0  0  0  0
  -20.1498   -4.2494  -27.5609 H   0  0  0  0  0  0
  -21.1004   -5.8800  -25.3198 H   0  0  0  0  0  0
  -19.3076   -4.5688  -24.0700 H   0  0  0  0  0  0
  -19.0089   -3.6495  -25.5165 H   0  0  0  0  0  0
  -18.2998   -5.7678  -26.6952 H   0  0  0  0  0  0
  -19.2114   -7.7238  -25.5825 H   0  0  0  0  0  0
  -18.9493   -7.0139  -24.0001 H   0  0  0  0  0  0
  -16.8568   -8.2297  -25.8222 H   0  0  0  0  0  0
  -17.0112   -8.3309  -24.0597 H   0  0  0  0  0  0
  -15.3046   -6.5496  -24.6272 H   0  0  0  0  0  0
  -24.0927   -3.4872  -24.2691 H   0  0  0  0  0  0
  -25.1817   -3.4169  -22.2562 H   0  0  0  0  0  0
  -23.6626   -3.3670  -21.3905 H   0  0  0  0  0  0
  -24.7262   -6.0258  -23.8487 H   0  0  0  0  0  0
  -24.9851   -8.3956  -23.2338 H   0  0  0  0  0  0
  -24.8096   -9.0819  -20.8643 H   0  0  0  0  0  0
  -24.3664   -7.4020  -19.1056 H   0  0  0  0  0  0
  -24.0998   -5.0291  -19.7141 H   0  0  0  0  0  0
  1  2  1  0  0  0
  1 47  1  0  0  0
  1 48  1  0  0  0
  1 49  1  0  0  0
  2  3  1  0  0  0
  2  4  1  0  0  0
  2  5  1  0  0  0
  3 50  1  0  0  0
  3 51  1  0  0  0
  3 52  1  0  0  0
  4 53  1  0  0  0
  4 54  1  0  0  0
  4 55  1  0  0  0
  5  6  1  0  0  0
  6  7  2  0  0  0
  6  8  1  0  0  0
  8  9  1  0  0  0
  8 56  1  0  0  0
  9 45  1  0  0  0
  9 10  2  0  0  0
 10 11  1  0  0  0
 10 57  1  0  0  0
 11 12  2  0  0  0
 11 58  1  0  0  0
 12 13  1  0  0  0
 12 59  1  0  0  0
 13 14  1  0  0  0
 13 45  1  0  0  0
 14 15  1  0  0  0
 14 22  1  0  0  0
 14 60  1  0  0  0
 15 16  1  0  0  0
 15 61  1  0  0  0
 15 62  1  0  0  0
 16 21  1  0  0  0
 16 17  1  0  0  0
 16 63  1  0  0  0
 17 18  1  0  0  0
 17 64  1  0  0  0
 17 65  1  0  0  0
 18 19  1  0  0  0
 18 66  1  0  0  0
 18 67  1  0  0  0
 19 20  1  0  0  0
 19 68  1  0  0  0
 19 69  1  0  0  0
 20 21  1  0  0  0
 20 70  1  0  0  0
 20 71  1  0  0  0
 21 72  1  0  0  0
 21 73  1  0  0  0
 22 23  2  0  0  0
 22 24  1  0  0  0
 24 25  1  0  0  0
 24 74  1  0  0  0
 25 26  1  0  0  0
 25 33  1  0  0  0
 25 75  1  0  0  0
 26 27  1  0  0  0
 26 76  1  0  0  0
 26 77  1  0  0  0
 27 31  1  0  0  0
 27 28  1  0  0  0
 27 78  1  0  0  0
 28 29  1  0  0  0
 28 79  1  0  0  0
 28 80  1  0  0  0
 29 30  1  0  0  0
 29 81  1  0  0  0
 29 82  1  0  0  0
 30 31  1  0  0  0
 30 83  1  0  0  0
 31 32  2  0  0  0
 33 34  2  0  0  0
 33 35  1  0  0  0
 35 36  2  0  0  0
 35 37  1  0  0  0
 37 38  1  0  0  0
 37 84  1  0  0  0
 38 39  1  0  0  0
 38 85  1  0  0  0
 38 86  1  0  0  0
 39 44  1  0  0  0
 39 40  2  0  0  0
 40 41  1  0  0  0
 40 87  1  0  0  0
 41 42  2  0  0  0
 41 88  1  0  0  0
 42 43  1  0  0  0
 42 89  1  0  0  0
 43 44  2  0  0  0
 43 90  1  0  0  0
 44 91  1  0  0  0
 45 46  2  0  0  0
M  END
$$$$
