@<TRIPOS>MOLECULE
/home/lixiaoshuang.lxs/med/data/m_pro/PDB_BA/4mds/4mds_ligand.pdb
 38 41 0 0 0
SMALL
GASTEIGER

@<TRIPOS>ATOM
      1  O1       -13.4120   16.2900  -23.5140 O.2   401  23H401     -0.2723
      2  C1       -14.0390   15.2460  -23.7520 C.2   401  23H401      0.2549
      3  N1       -15.3490   15.2130  -23.4560 N.am  401  23H401     -0.2452
      4  C2       -16.0720   16.4110  -22.9370 C.3   401  23H401      0.1960
      5  C3       -16.1430   17.4800  -24.0070 C.2   401  23H401      0.2655
      6  O2       -16.3870   17.1740  -25.1720 O.2   401  23H401     -0.2711
      7  N2       -15.9120   18.7320  -23.6000 N.am  401  23H401     -0.2071
      8  C24      -15.9860   19.9760  -24.3950 C.3   401  23H401      0.0788
      9  C25      -17.4610   20.2090  -24.7780 C.3   401  23H401      0.0217
     10  C27      -15.1350   19.9790  -25.6550 C.3   401  23H401      0.0200
     11  C28      -13.7230   19.4530  -25.4880 C.3   401  23H401      0.0018
     12  C26      -15.5390   21.0950  -23.4390 C.3   401  23H401      0.0217
     13  C19      -17.4300   16.1180  -22.3810 C.ar  401  23H401      0.0647
     14  C20      -18.5740   16.2110  -23.1740 C.ar  401  23H401      0.0164
     15  C21      -19.6060   15.8440  -22.3420 C.ar  401  23H401      0.0199
     16  C22      -19.0890   15.5500  -21.0960 C.ar  401  23H401      0.0758
     17  N7       -17.7550   15.7230  -21.1520 N.ar  401  23H401     -0.3257
     18  C23      -16.7980   15.5150  -20.0350 C.3   401  23H401      0.1302
     19  C11      -16.1030   14.0340  -23.7420 C.ar  401  23H401      0.0547
     20  C12      -17.0070   14.0780  -24.7930 C.ar  401  23H401      0.0163
     21  C13      -17.8040   12.9730  -25.1160 C.ar  401  23H401      0.0179
     22  C16      -15.9970   12.8560  -23.0010 C.ar  401  23H401      0.0163
     23  C15      -16.7770   11.7370  -23.3370 C.ar  401  23H401      0.0179
     24  C14      -17.6880   11.7860  -24.3940 C.ar  401  23H401      0.0734
     25  N6       -18.4070   10.6270  -24.6370 N.am  401  23H401     -0.1792
     26  C17      -19.3800   10.3850  -25.5220 C.2   401  23H401      0.2461
     27  C18      -20.0530    9.0580  -25.6450 C.3   401  23H401      0.0968
     28  O3       -19.7660   11.2790  -26.2610 O.2   401  23H401     -0.2730
     29  C4       -13.2970   14.0520  -24.3380 C.3   401  23H401      0.2141
     30  N3       -12.0180   14.5470  -24.7740 N.ar  401  23H401     -0.2223
     31  N4       -10.9070   14.3230  -24.0180 N.ar  401  23H401     -0.0634
     32  N5        -9.8140   14.9430  -24.5630 N.ar  401  23H401     -0.1288
     33  C10      -10.2810   15.5850  -25.6660 C.ar  401  23H401      0.1217
     34  C5       -11.6590   15.3490  -25.7880 C.ar  401  23H401      0.0994
     35  C9        -9.5830   16.3760  -26.5720 C.ar  401  23H401      0.0225
     36  C8       -10.3020   16.9400  -27.6400 C.ar  401  23H401      0.0017
     37  C7       -11.6800   16.7030  -27.7630 C.ar  401  23H401      0.0016
     38  C6       -12.3870   15.9140  -26.8480 C.ar  401  23H401      0.0204
@<TRIPOS>BOND
     1    37    36   ar
     2    37    38   ar
     3    36    35   ar
     4    38    34   ar
     5    35    33   ar
     6    28    26    2
     7    34    33   ar
     8    34    30   ar
     9    33    32   ar
    10    10    11    1
    11    10     8    1
    12    27    26    1
    13    26    25   am
    14     6     5    2
    15    21    20   ar
    16    21    24   ar
    17    20    19   ar
    18     9     8    1
    19    30    29    1
    20    30    31   ar
    21    25    24    1
    22    32    31   ar
    23     8     7    1
    24     8    12    1
    25    24    23   ar
    26    29     2    1
    27     5     7   am
    28     5     4    1
    29     2     1    2
    30     2     3   am
    31    19     3    1
    32    19    22   ar
    33     3     4    1
    34    23    22   ar
    35    14    13   ar
    36    14    15   ar
    37     4    13    1
    38    13    17   ar
    39    15    16   ar
    40    17    16   ar
    41    17    18    1
