
                    3D
 Schrodinger Suite 2019-4.
 67 69  0  0  1  0            999 V2000
  -21.6499   -3.7900  -23.7737 C   0  0  0  0  0  0
  -21.2579   -3.3846  -22.6790 O   0  0  0  0  0  0
  -20.7943   -4.6228  -24.6985 C   0  0  2  0  0  0
  -19.2713   -4.5183  -24.4364 C   0  0  0  0  0  0
  -18.4699   -5.5416  -25.2878 C   0  0  2  0  0  0
  -18.6257   -6.9937  -24.8554 C   0  0  0  0  0  0
  -17.2885   -7.6240  -25.1920 C   0  0  0  0  0  0
  -16.3868   -6.4825  -25.1639 N   0  0  0  0  0  0
  -16.9638   -5.2765  -25.2634 C   0  0  0  0  0  0
  -16.4036   -4.1902  -25.3761 O   0  0  0  0  0  0
  -21.1554   -4.1900  -26.0540 N   0  0  0  0  0  0
  -21.5331   -5.0358  -27.0263 C   0  0  0  0  0  0
  -21.7442   -6.2341  -26.8369 O   0  0  0  0  0  0
  -21.7552   -4.4411  -28.4291 C   0  0  2  0  0  0
  -23.2629   -4.1672  -28.6075 C   0  0  0  0  0  0
  -23.6340   -3.4004  -29.8552 C   0  0  0  0  0  0
  -23.5246   -1.9969  -29.8626 C   0  0  0  0  0  0
  -23.8893   -1.2870  -30.9931 C   0  0  0  0  0  0
  -24.3274   -1.9621  -32.1227 C   0  0  0  0  0  0
  -24.3599   -3.3493  -32.1594 C   0  0  0  0  0  0
  -23.9875   -4.0791  -31.0403 C   0  0  0  0  0  0
  -21.2891   -5.3232  -29.5131 N   0  0  0  0  0  0
  -20.0293   -5.7555  -29.6822 C   0  0  0  0  0  0
  -19.0949   -5.3920  -28.9681 O   0  0  0  0  0  0
  -19.8775   -6.6860  -30.7768 C   0  0  0  0  0  0
  -18.7363   -7.3895  -30.9505 C   0  0  0  0  0  0
  -18.4223   -8.3520  -32.0267 C   0  0  0  0  0  0
  -17.2176   -9.0531  -31.9524 C   0  0  0  0  0  0
  -16.8717   -9.9714  -32.9382 C   0  0  0  0  0  0
  -17.7139  -10.2029  -34.0359 C   0  0  0  0  0  0
  -18.9175   -9.4845  -34.1058 C   0  0  0  0  0  0
  -19.2727   -8.5747  -33.1129 C   0  0  0  0  0  0
  -17.3678  -11.1475  -35.0403 N   0  0  0  0  0  0
  -16.1787  -11.9872  -34.8954 C   0  0  0  0  0  0
  -17.9401  -11.0117  -36.3818 C   0  0  0  0  0  0
  -22.6662   -3.5938  -24.1207 H   0  0  0  0  0  0
  -21.0966   -5.6577  -24.5228 H   0  0  0  0  0  0
  -19.0615   -4.6784  -23.3780 H   0  0  0  0  0  0
  -18.9393   -3.5008  -24.6600 H   0  0  0  0  0  0
  -18.7457   -5.4307  -26.3365 H   0  0  0  0  0  0
  -19.4614   -7.5053  -25.3364 H   0  0  0  0  0  0
  -18.7871   -7.0548  -23.7772 H   0  0  0  0  0  0
  -17.2787   -8.0852  -26.1827 H   0  0  0  0  0  0
  -16.9952   -8.3767  -24.4570 H   0  0  0  0  0  0
  -15.3814   -6.5921  -25.2558 H   0  0  0  0  0  0
  -20.9521   -3.2287  -26.2892 H   0  0  0  0  0  0
  -21.2199   -3.4900  -28.4987 H   0  0  0  0  0  0
  -23.6453   -3.5961  -27.7583 H   0  0  0  0  0  0
  -23.8244   -5.1041  -28.6013 H   0  0  0  0  0  0
  -23.1960   -1.4690  -28.9785 H   0  0  0  0  0  0
  -23.8481   -0.2064  -30.9854 H   0  0  0  0  0  0
  -24.6469   -1.3972  -32.9760 H   0  0  0  0  0  0
  -24.6867   -3.8633  -33.0498 H   0  0  0  0  0  0
  -24.0333   -5.1568  -31.0614 H   0  0  0  0  0  0
  -22.0005   -5.6423  -30.1520 H   0  0  0  0  0  0
  -20.7175   -6.7995  -31.4439 H   0  0  0  0  0  0
  -17.9345   -7.2398  -30.2395 H   0  0  0  0  0  0
  -16.5353   -8.8903  -31.1291 H   0  0  0  0  0  0
  -15.9300  -10.4876  -32.8348 H   0  0  0  0  0  0
  -19.6028   -9.6270  -34.9270 H   0  0  0  0  0  0
  -20.2091   -8.0467  -33.2047 H   0  0  0  0  0  0
  -16.1467  -12.7775  -35.6472 H   0  0  0  0  0  0
  -15.2711  -11.3901  -34.9908 H   0  0  0  0  0  0
  -16.1585  -12.4640  -33.9137 H   0  0  0  0  0  0
  -17.5230  -11.7370  -37.0815 H   0  0  0  0  0  0
  -19.0234  -11.1475  -36.3651 H   0  0  0  0  0  0
  -17.7377  -10.0145  -36.7823 H   0  0  0  0  0  0
  1  2  2  0  0  0
  1  3  1  0  0  0
  1 36  1  0  0  0
  3  4  1  0  0  0
  3 11  1  0  0  0
  3 37  1  0  0  0
  4  5  1  0  0  0
  4 38  1  0  0  0
  4 39  1  0  0  0
  5  9  1  0  0  0
  5  6  1  0  0  0
  5 40  1  0  0  0
  6  7  1  0  0  0
  6 41  1  0  0  0
  6 42  1  0  0  0
  7  8  1  0  0  0
  7 43  1  0  0  0
  7 44  1  0  0  0
  8  9  1  0  0  0
  8 45  1  0  0  0
  9 10  2  0  0  0
 11 12  1  0  0  0
 11 46  1  0  0  0
 12 13  2  0  0  0
 12 14  1  0  0  0
 14 15  1  0  0  0
 14 22  1  0  0  0
 14 47  1  0  0  0
 15 16  1  0  0  0
 15 48  1  0  0  0
 15 49  1  0  0  0
 16 21  1  0  0  0
 16 17  2  0  0  0
 17 18  1  0  0  0
 17 50  1  0  0  0
 18 19  2  0  0  0
 18 51  1  0  0  0
 19 20  1  0  0  0
 19 52  1  0  0  0
 20 21  2  0  0  0
 20 53  1  0  0  0
 21 54  1  0  0  0
 22 23  1  0  0  0
 22 55  1  0  0  0
 23 24  2  0  0  0
 23 25  1  0  0  0
 25 26  2  0  0  0
 25 56  1  0  0  0
 26 27  1  0  0  0
 26 57  1  0  0  0
 27 32  1  0  0  0
 27 28  2  0  0  0
 28 29  1  0  0  0
 28 58  1  0  0  0
 29 30  2  0  0  0
 29 59  1  0  0  0
 30 31  1  0  0  0
 30 33  1  0  0  0
 31 32  2  0  0  0
 31 60  1  0  0  0
 32 61  1  0  0  0
 33 34  1  0  0  0
 33 35  1  0  0  0
 34 62  1  0  0  0
 34 63  1  0  0  0
 34 64  1  0  0  0
 35 65  1  0  0  0
 35 66  1  0  0  0
 35 67  1  0  0  0
M  END
$$$$
