@<TRIPOS>MOLECULE
*****
 67 69 0 0 0
SMALL
GASTEIGER
****
Schrodinger Suite 2019-4.
@<TRIPOS>ATOM
      1 C         -21.6499   -3.7900  -23.7737 C.2     1  UNK1        0.1404
      2 O         -21.2579   -3.3846  -22.6790 O.2     1  UNK1       -0.2991
      3 C         -20.7943   -4.6228  -24.6985 C.3     1  UNK1        0.0791
      4 C         -19.2713   -4.5183  -24.4364 C.3     1  UNK1       -0.0167
      5 C         -18.4699   -5.5416  -25.2878 C.3     1  UNK1        0.0390
      6 C         -18.6257   -6.9937  -24.8554 C.3     1  UNK1       -0.0262
      7 C         -17.2885   -7.6240  -25.1920 C.3     1  UNK1        0.0123
      8 N         -16.3868   -6.4825  -25.1639 N.am    1  UNK1       -0.3151
      9 C         -16.9638   -5.2765  -25.2634 C.2     1  UNK1        0.2162
     10 O         -16.4036   -4.1902  -25.3761 O.2     1  UNK1       -0.2755
     11 N         -21.1554   -4.1900  -26.0540 N.am    1  UNK1       -0.3044
     12 C         -21.5331   -5.0358  -27.0263 C.2     1  UNK1        0.2342
     13 O         -21.7442   -6.2341  -26.8369 O.2     1  UNK1       -0.2738
     14 C         -21.7552   -4.4411  -28.4291 C.3     1  UNK1        0.1036
     15 C         -23.2629   -4.1672  -28.6075 C.3     1  UNK1       -0.0006
     16 C         -23.6340   -3.4004  -29.8552 C.ar    1  UNK1       -0.0451
     17 C         -23.5246   -1.9969  -29.8626 C.ar    1  UNK1       -0.0585
     18 C         -23.8893   -1.2870  -30.9931 C.ar    1  UNK1       -0.0615
     19 C         -24.3274   -1.9621  -32.1227 C.ar    1  UNK1       -0.0617
     20 C         -24.3599   -3.3493  -32.1594 C.ar    1  UNK1       -0.0615
     21 C         -23.9875   -4.0791  -31.0403 C.ar    1  UNK1       -0.0585
     22 N         -21.2891   -5.3232  -29.5131 N.am    1  UNK1       -0.3002
     23 C         -20.0293   -5.7555  -29.6822 C.2     0  UNK0        0.2375
     24 O         -19.0949   -5.3920  -28.9681 O.2     0  UNK0       -0.2708
     25 C         -19.8775   -6.6860  -30.7768 C.2     0  UNK0        0.0007
     26 C         -18.7363   -7.3895  -30.9505 C.2     0  UNK0       -0.0497
     27 C         -18.4223   -8.3520  -32.0267 C.ar    0  UNK0       -0.0248
     28 C         -17.2176   -9.0531  -31.9524 C.ar    0  UNK0       -0.0528
     29 C         -16.8717   -9.9714  -32.9382 C.ar    0  UNK0       -0.0401
     30 C         -17.7139  -10.2029  -34.0359 C.ar    0  UNK0        0.0292
     31 C         -18.9175   -9.4845  -34.1058 C.ar    0  UNK0       -0.0401
     32 C         -19.2727   -8.5747  -33.1129 C.ar    0  UNK0       -0.0528
     33 N         -17.3678  -11.1475  -35.0403 N.pl3   0  UNK0       -0.3360
     34 C         -16.1787  -11.9872  -34.8954 C.3     0  UNK0        0.0004
     35 C         -17.9401  -11.0117  -36.3818 C.3     0  UNK0        0.0004
     36 H         -22.6662   -3.5938  -24.1207 H       1  UNK1        0.1046
     37 H         -21.0966   -5.6577  -24.5228 H       1  UNK1        0.0574
     38 H         -19.0615   -4.6784  -23.3780 H       1  UNK1        0.0294
     39 H         -18.9393   -3.5008  -24.6600 H       1  UNK1        0.0294
     40 H         -18.7457   -5.4307  -26.3365 H       1  UNK1        0.0395
     41 H         -19.4614   -7.5053  -25.3364 H       1  UNK1        0.0288
     42 H         -18.7871   -7.0548  -23.7772 H       1  UNK1        0.0288
     43 H         -17.2787   -8.0852  -26.1827 H       1  UNK1        0.0462
     44 H         -16.9952   -8.3767  -24.4570 H       1  UNK1        0.0462
     45 H         -15.3814   -6.5921  -25.2558 H       1  UNK1        0.1487
     46 H         -20.9521   -3.2287  -26.2892 H       1  UNK1        0.1494
     47 H         -21.2199   -3.4900  -28.4987 H       1  UNK1        0.0598
     48 H         -23.6453   -3.5961  -27.7583 H       1  UNK1        0.0336
     49 H         -23.8244   -5.1041  -28.6013 H       1  UNK1        0.0336
     50 H         -23.1960   -1.4690  -28.9785 H       1  UNK1        0.0620
     51 H         -23.8481   -0.2064  -30.9854 H       1  UNK1        0.0618
     52 H         -24.6469   -1.3972  -32.9760 H       1  UNK1        0.0618
     53 H         -24.6867   -3.8633  -33.0498 H       1  UNK1        0.0618
     54 H         -24.0333   -5.1568  -31.0614 H       1  UNK1        0.0620
     55 H         -22.0005   -5.6423  -30.1520 H       1  UNK1        0.1498
     56 H         -20.7175   -6.7995  -31.4439 H       0  UNK0        0.0669
     57 H         -17.9345   -7.2398  -30.2395 H       0  UNK0        0.0625
     58 H         -16.5353   -8.8903  -31.1291 H       0  UNK0        0.0624
     59 H         -15.9300  -10.4876  -32.8348 H       0  UNK0        0.0636
     60 H         -19.6028   -9.6270  -34.9270 H       0  UNK0        0.0636
     61 H         -20.2091   -8.0467  -33.2047 H       0  UNK0        0.0624
     62 H         -16.1467  -12.7775  -35.6472 H       0  UNK0        0.0428
     63 H         -15.2711  -11.3901  -34.9908 H       0  UNK0        0.0428
     64 H         -16.1585  -12.4640  -33.9137 H       0  UNK0        0.0428
     65 H         -17.5230  -11.7370  -37.0815 H       0  UNK0        0.0428
     66 H         -19.0234  -11.1475  -36.3651 H       0  UNK0        0.0428
     67 H         -17.7377  -10.0145  -36.7823 H       0  UNK0        0.0428
@<TRIPOS>BOND
     1     1     2    2
     2     1     3    1
     3     1    36    1
     4     3     4    1
     5     3    11    1
     6     3    37    1
     7     4     5    1
     8     4    38    1
     9     4    39    1
    10     5     9    1
    11     5     6    1
    12     5    40    1
    13     6     7    1
    14     6    41    1
    15     6    42    1
    16     7     8    1
    17     7    43    1
    18     7    44    1
    19     8     9   am
    20     8    45    1
    21     9    10    2
    22    11    12   am
    23    11    46    1
    24    12    13    2
    25    12    14    1
    26    14    15    1
    27    14    22    1
    28    14    47    1
    29    15    16    1
    30    15    48    1
    31    15    49    1
    32    16    21   ar
    33    16    17   ar
    34    17    18   ar
    35    17    50    1
    36    18    19   ar
    37    18    51    1
    38    19    20   ar
    39    19    52    1
    40    20    21   ar
    41    20    53    1
    42    21    54    1
    43    22    23   am
    44    22    55    1
    45    23    24    2
    46    23    25    1
    47    25    26    2
    48    25    56    1
    49    26    27    1
    50    26    57    1
    51    27    32   ar
    52    27    28   ar
    53    28    29   ar
    54    28    58    1
    55    29    30   ar
    56    29    59    1
    57    30    31   ar
    58    30    33    1
    59    31    32   ar
    60    31    60    1
    61    32    61    1
    62    33    34    1
    63    33    35    1
    64    34    62    1
    65    34    63    1
    66    34    64    1
    67    35    65    1
    68    35    66    1
    69    35    67    1
