@<TRIPOS>MOLECULE
*****
 80 81 0 0 0
SMALL
GASTEIGER
****
Schrodinger Suite 2019-4.
@<TRIPOS>ATOM
      1 C         -27.2485   -0.7448  -35.7265 C.3     0  UNK0        0.0122
      2 C         -26.7534   -0.5248  -34.3084 C.2     0  UNK0        0.2105
      3 O         -26.3210    0.5751  -34.0194 O.2     0  UNK0       -0.2761
      4 N         -26.7217   -1.6011  -33.4953 N.am    1  ASN1       -0.3038
      5 CA        -25.8676   -1.7402  -32.3182 C.3     1  ASN1        0.1075
      6 CB        -26.6818   -1.4416  -31.0520 C.3     1  ASN1        0.0506
      7 CG        -25.8408   -1.6135  -29.7921 C.2     1  ASN1        0.2127
      8 ND2       -24.6015   -1.1176  -29.7920 N.am    1  ASN1       -0.3293
      9 OD1       -26.3192   -2.1460  -28.8031 O.2     1  ASN1       -0.2760
     10 C         -25.2287   -3.1538  -32.2659 C.2     1  ASN1        0.2344
     11 O         -25.9210   -4.0920  -32.6049 O.2     1  ASN1       -0.2737
     12 N         -23.9793   -3.2918  -31.7875 N.am    2  VAL2       -0.3022
     13 CA        -23.3684   -4.5067  -31.2444 C.3     2  VAL2        0.1017
     14 C         -23.6520   -4.5491  -29.7279 C.2     2  VAL2        0.2342
     15 O         -23.2668   -3.6139  -29.0243 O.2     2  VAL2       -0.2738
     16 N         -24.2958   -5.6252  -29.2455 N.am    3  PHE3       -0.3025
     17 CA        -24.6432   -5.8095  -27.8319 C.3     3  PHE3        0.0997
     18 CB        -25.5553   -7.0461  -27.6407 C.3     3  PHE3       -0.0231
     19 CG        -25.9832   -7.3690  -26.1811 C.3     3  PHE3       -0.0389
     20 CD2       -26.7798   -8.6904  -26.0791 C.3     3  PHE3       -0.0501
     21 CE2       -28.1836   -8.5655  -26.7033 C.3     3  PHE3       -0.0528
     22 CZ        -28.9762   -7.3971  -26.0777 C.3     3  PHE3       -0.0530
     23 CE1       -28.1930   -6.0672  -26.0996 C.3     3  PHE3       -0.0528
     24 CD1       -26.7863   -6.2384  -25.4905 C.3     3  PHE3       -0.0501
     25 C         -23.3899   -5.8948  -26.9385 C.2     3  PHE3        0.2339
     26 O         -22.6590   -6.8809  -27.0267 O.2     3  PHE3       -0.2738
     27 N         -23.1826   -4.8781  -26.0858 N.am    4  HIS4       -0.3041
     28 CA        -22.0306   -4.7784  -25.1813 C.3     4  HIS4        0.0839
     29 C         -22.5587   -4.0948  -23.9365 C.2     4  HIS4        0.1408
     30 O         -21.9385   -4.0918  -22.8733 O.2     4  HIS4       -0.2991
     31 CB        -20.8856   -3.9802  -25.8593 C.3     4  HIS4        0.0161
     32 CG        -19.5306   -4.1994  -25.2299 C.ar    4  HIS4        0.0610
     33 CD2       -18.5529   -5.1048  -25.5912 C.ar    4  HIS4        0.0243
     34 NE2       -17.5283   -4.9571  -24.6729 N.ar    4  HIS4       -0.3506
     35 CE1       -17.9093   -4.0041  -23.8220 C.ar    4  HIS4        0.0936
     36 ND1       -19.0973   -3.4892  -24.1050 N.ar    4  HIS4       -0.2408
     37 CB        -21.8149   -4.4728  -31.4086 C.3     2  VAL2       -0.0197
     38 CG1       -21.4073   -4.4145  -32.8855 C.3     2  VAL2       -0.0605
     39 CG2       -21.0711   -5.6405  -30.7221 C.3     2  VAL2       -0.0605
     40 H         -27.5209   -1.7855  -35.8977 H       0  UNK0        0.0322
     41 H         -28.0859   -0.0898  -35.9561 H       0  UNK0        0.0322
     42 H         -26.4503   -0.4866  -36.4192 H       0  UNK0        0.0322
     43 H         -27.1213   -2.4767  -33.8141 H       1  ASN1        0.1495
     44 HA        -25.1210   -0.9624  -32.3918 H       1  ASN1        0.0599
     45 HB1       -27.5546   -2.0914  -30.9910 H       1  ASN1        0.0381
     46 HB2       -27.0617   -0.4227  -31.0673 H       1  ASN1        0.0381
     47 HD21      -24.0216   -1.2595  -28.9754 H       1  ASN1        0.1449
     48 HD22      -24.2360   -0.6006  -30.5761 H       1  ASN1        0.1449
     49 H         -23.4628   -2.4462  -31.5912 H       2  VAL2        0.1495
     50 HA        -23.7791   -5.3913  -31.7347 H       2  VAL2        0.0597
     51 H         -24.5677   -6.3666  -29.8724 H       3  PHE3        0.1495
     52 HA        -25.2093   -4.9245  -27.5377 H       3  PHE3        0.0594
     53 HB1       -25.0394   -7.9164  -28.0507 H       3  PHE3        0.0290
     54 HB2       -26.4407   -6.9146  -28.2582 H       3  PHE3        0.0290
     55 HG        -25.0887   -7.5273  -25.5782 H       3  PHE3        0.0301
     56 HD21      -26.8755   -8.9835  -25.0328 H       3  PHE3        0.0268
     57 HD22      -26.2368   -9.4990  -26.5698 H       3  PHE3        0.0268
     58 HE21      -28.7200   -9.5034  -26.5684 H       3  PHE3        0.0265
     59 HE22      -28.1078   -8.4239  -27.7820 H       3  PHE3        0.0265
     60 HZ1       -29.2258   -7.6498  -25.0465 H       3  PHE3        0.0265
     61 HZ2       -29.9247   -7.2725  -26.5945 H       3  PHE3        0.0265
     62 HE11      -28.7477   -5.3042  -25.5517 H       3  PHE3        0.0265
     63 HE12      -28.1177   -5.7012  -27.1240 H       3  PHE3        0.0265
     64 HD11      -26.2516   -5.2941  -25.5619 H       3  PHE3        0.0268
     65 HD12      -26.8795   -6.4530  -24.4256 H       3  PHE3        0.0268
     66 H         -23.8160   -4.0881  -26.1061 H       4  HIS4        0.1494
     67 HA        -21.6773   -5.7784  -24.9143 H       4  HIS4        0.0578
     68 H         -23.5189   -3.5855  -24.0298 H       4  HIS4        0.1046
     69 HB1       -21.0952   -2.9087  -25.8859 H       4  HIS4        0.0351
     70 HB2       -20.7949   -4.2798  -26.9049 H       4  HIS4        0.0351
     71 HD2       -18.5166   -5.8314  -26.3896 H       4  HIS4        0.0825
     72 HE2       -16.6623   -5.4804  -24.6452 H       4  HIS4        0.1662
     73 HE1       -17.3009   -3.6724  -22.9943 H       4  HIS4        0.1027
     74 HB        -21.4427   -3.5531  -30.9512 H       2  VAL2        0.0318
     75 HG11      -21.8408   -3.5513  -33.3912 H       2  VAL2        0.0233
     76 HG12      -20.3242   -4.3427  -32.9890 H       2  VAL2        0.0233
     77 HG13      -21.7354   -5.3178  -33.3918 H       2  VAL2        0.0233
     78 HG21      -20.0059   -5.6179  -30.9538 H       2  VAL2        0.0233
     79 HG22      -21.1513   -5.6019  -29.6357 H       2  VAL2        0.0233
     80 HG23      -21.4583   -6.6044  -31.0526 H       2  VAL2        0.0233
@<TRIPOS>BOND
     1     1     2    1
     2     1    40    1
     3     1    41    1
     4     1    42    1
     5     2     3    2
     6     2     4   am
     7     4     5    1
     8     4    43    1
     9     5     6    1
    10     5    10    1
    11     5    44    1
    12     6     7    1
    13     6    45    1
    14     6    46    1
    15     7     8   am
    16     7     9    2
    17     8    47    1
    18     8    48    1
    19    10    11    2
    20    10    12   am
    21    12    13    1
    22    12    49    1
    23    13    14    1
    24    13    37    1
    25    13    50    1
    26    14    15    2
    27    14    16   am
    28    16    17    1
    29    16    51    1
    30    17    18    1
    31    17    25    1
    32    17    52    1
    33    18    19    1
    34    18    53    1
    35    18    54    1
    36    19    24    1
    37    19    20    1
    38    19    55    1
    39    20    21    1
    40    20    56    1
    41    20    57    1
    42    21    22    1
    43    21    58    1
    44    21    59    1
    45    22    23    1
    46    22    60    1
    47    22    61    1
    48    23    24    1
    49    23    62    1
    50    23    63    1
    51    24    64    1
    52    24    65    1
    53    25    26    2
    54    25    27   am
    55    27    28    1
    56    27    66    1
    57    28    29    1
    58    28    31    1
    59    28    67    1
    60    29    30    2
    61    29    68    1
    62    31    32    1
    63    31    69    1
    64    31    70    1
    65    32    36   ar
    66    32    33   ar
    67    33    34   ar
    68    33    71    1
    69    34    35   ar
    70    34    72    1
    71    35    36   ar
    72    35    73    1
    73    37    38    1
    74    37    39    1
    75    37    74    1
    76    38    75    1
    77    38    76    1
    78    38    77    1
    79    39    78    1
    80    39    79    1
    81    39    80    1
