
                    3D
 Schrodinger Suite 2019-4.
 80 81  0  0  1  0            999 V2000
  -27.2485   -0.7448  -35.7265 C   0  0  0  0  0  0
  -26.7534   -0.5248  -34.3084 C   0  0  0  0  0  0
  -26.3210    0.5751  -34.0194 O   0  0  0  0  0  0
  -26.7217   -1.6011  -33.4953 N   0  0  0  0  0  0
  -25.8676   -1.7402  -32.3182 C   0  0  1  0  0  0
  -26.6818   -1.4416  -31.0520 C   0  0  0  0  0  0
  -25.8408   -1.6135  -29.7921 C   0  0  0  0  0  0
  -24.6015   -1.1176  -29.7920 N   0  0  0  0  0  0
  -26.3192   -2.1460  -28.8031 O   0  0  0  0  0  0
  -25.2287   -3.1538  -32.2659 C   0  0  0  0  0  0
  -25.9210   -4.0920  -32.6049 O   0  0  0  0  0  0
  -23.9793   -3.2918  -31.7875 N   0  0  0  0  0  0
  -23.3684   -4.5067  -31.2444 C   0  0  2  0  0  0
  -23.6520   -4.5491  -29.7279 C   0  0  0  0  0  0
  -23.2668   -3.6139  -29.0243 O   0  0  0  0  0  0
  -24.2958   -5.6252  -29.2455 N   0  0  0  0  0  0
  -24.6432   -5.8095  -27.8319 C   0  0  1  0  0  0
  -25.5553   -7.0461  -27.6407 C   0  0  0  0  0  0
  -25.9832   -7.3690  -26.1811 C   0  0  0  0  0  0
  -26.7798   -8.6904  -26.0791 C   0  0  0  0  0  0
  -28.1836   -8.5655  -26.7033 C   0  0  0  0  0  0
  -28.9762   -7.3971  -26.0777 C   0  0  0  0  0  0
  -28.1930   -6.0672  -26.0996 C   0  0  0  0  0  0
  -26.7863   -6.2384  -25.4905 C   0  0  0  0  0  0
  -23.3899   -5.8948  -26.9385 C   0  0  0  0  0  0
  -22.6590   -6.8809  -27.0267 O   0  0  0  0  0  0
  -23.1826   -4.8781  -26.0858 N   0  0  0  0  0  0
  -22.0306   -4.7784  -25.1813 C   0  0  2  0  0  0
  -22.5587   -4.0948  -23.9365 C   0  0  0  0  0  0
  -21.9385   -4.0918  -22.8733 O   0  0  0  0  0  0
  -20.8856   -3.9802  -25.8593 C   0  0  0  0  0  0
  -19.5306   -4.1994  -25.2299 C   0  0  0  0  0  0
  -18.5529   -5.1048  -25.5912 C   0  0  0  0  0  0
  -17.5283   -4.9571  -24.6729 N   0  0  0  0  0  0
  -17.9093   -4.0041  -23.8220 C   0  0  0  0  0  0
  -19.0973   -3.4892  -24.1050 N   0  0  0  0  0  0
  -21.8149   -4.4728  -31.4086 C   0  0  0  0  0  0
  -21.4073   -4.4145  -32.8855 C   0  0  0  0  0  0
  -21.0711   -5.6405  -30.7221 C   0  0  0  0  0  0
  -27.5209   -1.7855  -35.8977 H   0  0  0  0  0  0
  -28.0859   -0.0898  -35.9561 H   0  0  0  0  0  0
  -26.4503   -0.4866  -36.4192 H   0  0  0  0  0  0
  -27.1213   -2.4767  -33.8141 H   0  0  0  0  0  0
  -25.1210   -0.9624  -32.3918 H   0  0  0  0  0  0
  -27.5546   -2.0914  -30.9910 H   0  0  0  0  0  0
  -27.0617   -0.4227  -31.0673 H   0  0  0  0  0  0
  -24.0216   -1.2595  -28.9754 H   0  0  0  0  0  0
  -24.2360   -0.6006  -30.5761 H   0  0  0  0  0  0
  -23.4628   -2.4462  -31.5912 H   0  0  0  0  0  0
  -23.7791   -5.3913  -31.7347 H   0  0  0  0  0  0
  -24.5677   -6.3666  -29.8724 H   0  0  0  0  0  0
  -25.2093   -4.9245  -27.5377 H   0  0  0  0  0  0
  -25.0394   -7.9164  -28.0507 H   0  0  0  0  0  0
  -26.4407   -6.9146  -28.2582 H   0  0  0  0  0  0
  -25.0887   -7.5273  -25.5782 H   0  0  0  0  0  0
  -26.8755   -8.9835  -25.0328 H   0  0  0  0  0  0
  -26.2368   -9.4990  -26.5698 H   0  0  0  0  0  0
  -28.7200   -9.5034  -26.5684 H   0  0  0  0  0  0
  -28.1078   -8.4239  -27.7820 H   0  0  0  0  0  0
  -29.2258   -7.6498  -25.0465 H   0  0  0  0  0  0
  -29.9247   -7.2725  -26.5945 H   0  0  0  0  0  0
  -28.7477   -5.3042  -25.5517 H   0  0  0  0  0  0
  -28.1177   -5.7012  -27.1240 H   0  0  0  0  0  0
  -26.2516   -5.2941  -25.5619 H   0  0  0  0  0  0
  -26.8795   -6.4530  -24.4256 H   0  0  0  0  0  0
  -23.8160   -4.0881  -26.1061 H   0  0  0  0  0  0
  -21.6773   -5.7784  -24.9143 H   0  0  0  0  0  0
  -23.5189   -3.5855  -24.0298 H   0  0  0  0  0  0
  -21.0952   -2.9087  -25.8859 H   0  0  0  0  0  0
  -20.7949   -4.2798  -26.9049 H   0  0  0  0  0  0
  -18.5166   -5.8314  -26.3896 H   0  0  0  0  0  0
  -16.6623   -5.4804  -24.6452 H   0  0  0  0  0  0
  -17.3009   -3.6724  -22.9943 H   0  0  0  0  0  0
  -21.4427   -3.5531  -30.9512 H   0  0  0  0  0  0
  -21.8408   -3.5513  -33.3912 H   0  0  0  0  0  0
  -20.3242   -4.3427  -32.9890 H   0  0  0  0  0  0
  -21.7354   -5.3178  -33.3918 H   0  0  0  0  0  0
  -20.0059   -5.6179  -30.9538 H   0  0  0  0  0  0
  -21.1513   -5.6019  -29.6357 H   0  0  0  0  0  0
  -21.4583   -6.6044  -31.0526 H   0  0  0  0  0  0
  1  2  1  0  0  0
  1 40  1  0  0  0
  1 41  1  0  0  0
  1 42  1  0  0  0
  2  3  2  0  0  0
  2  4  1  0  0  0
  4  5  1  0  0  0
  4 43  1  0  0  0
  5  6  1  0  0  0
  5 10  1  0  0  0
  5 44  1  0  0  0
  6  7  1  0  0  0
  6 45  1  0  0  0
  6 46  1  0  0  0
  7  8  1  0  0  0
  7  9  2  0  0  0
  8 47  1  0  0  0
  8 48  1  0  0  0
 10 11  2  0  0  0
 10 12  1  0  0  0
 12 13  1  0  0  0
 12 49  1  0  0  0
 13 14  1  0  0  0
 13 37  1  0  0  0
 13 50  1  0  0  0
 14 15  2  0  0  0
 14 16  1  0  0  0
 16 17  1  0  0  0
 16 51  1  0  0  0
 17 18  1  0  0  0
 17 25  1  0  0  0
 17 52  1  0  0  0
 18 19  1  0  0  0
 18 53  1  0  0  0
 18 54  1  0  0  0
 19 24  1  0  0  0
 19 20  1  0  0  0
 19 55  1  0  0  0
 20 21  1  0  0  0
 20 56  1  0  0  0
 20 57  1  0  0  0
 21 22  1  0  0  0
 21 58  1  0  0  0
 21 59  1  0  0  0
 22 23  1  0  0  0
 22 60  1  0  0  0
 22 61  1  0  0  0
 23 24  1  0  0  0
 23 62  1  0  0  0
 23 63  1  0  0  0
 24 64  1  0  0  0
 24 65  1  0  0  0
 25 26  2  0  0  0
 25 27  1  0  0  0
 27 28  1  0  0  0
 27 66  1  0  0  0
 28 29  1  0  0  0
 28 31  1  0  0  0
 28 67  1  0  0  0
 29 30  2  0  0  0
 29 68  1  0  0  0
 31 32  1  0  0  0
 31 69  1  0  0  0
 31 70  1  0  0  0
 32 36  1  0  0  0
 32 33  2  0  0  0
 33 34  1  0  0  0
 33 71  1  0  0  0
 34 35  1  0  0  0
 34 72  1  0  0  0
 35 36  2  0  0  0
 35 73  1  0  0  0
 37 38  1  0  0  0
 37 39  1  0  0  0
 37 74  1  0  0  0
 38 75  1  0  0  0
 38 76  1  0  0  0
 38 77  1  0  0  0
 39 78  1  0  0  0
 39 79  1  0  0  0
 39 80  1  0  0  0
M  END
$$$$
