@<TRIPOS>MOLECULE
*****
 74 78 0 0 0
SMALL
GASTEIGER
****
Schrodinger Suite 2019-4.
@<TRIPOS>ATOM
      1 C         -21.2220  -12.3469  -34.3029 C.3     1  UNL1        0.0788
      2 O         -19.8709  -11.9115  -34.2513 O.3     1  UNL1       -0.4951
      3 C         -19.5647  -10.8397  -33.4410 C.ar    1  UNL1        0.1208
      4 C         -18.1975  -10.5251  -33.2926 C.ar    1  UNL1       -0.0180
      5 C         -17.7938   -9.4638  -32.4644 C.ar    1  UNL1       -0.0343
      6 C         -18.7706   -8.7144  -31.7923 C.ar    1  UNL1        0.0472
      7 N         -18.6863   -7.6495  -30.9267 N.ar    1  UNL1       -0.3506
      8 C         -19.9388   -7.2033  -30.5528 C.ar    1  UNL1        0.1028
      9 C         -20.8775   -8.0080  -31.1495 C.ar    1  UNL1       -0.0240
     10 C         -20.1613   -8.9754  -31.9338 C.ar    1  UNL1        0.0039
     11 C         -20.5352  -10.0546  -32.7661 C.ar    1  UNL1       -0.0108
     12 C         -20.0202   -6.0385  -29.6547 C.2     1  UNL1        0.2610
     13 O         -19.0094   -5.5366  -29.1655 O.2     1  UNL1       -0.2686
     14 N         -21.2509   -5.5684  -29.4228 N.am    1  UNL1       -0.2988
     15 C         -21.5642   -4.4431  -28.5423 C.3     1  UNL1        0.0999
     16 C         -23.0205   -4.0218  -28.8007 C.3     1  UNL1       -0.0236
     17 C         -23.2874   -3.5664  -30.2530 C.3     1  UNL1       -0.0446
     18 C         -23.1146   -2.0537  -30.4410 C.3     1  UNL1       -0.0626
     19 C         -24.6730   -4.0175  -30.6983 C.3     1  UNL1       -0.0626
     20 C         -21.4313   -4.9027  -27.0856 C.2     1  UNL1        0.2339
     21 O         -21.7327   -6.0593  -26.7842 O.2     1  UNL1       -0.2738
     22 N         -20.9904   -4.0101  -26.1837 N.am    1  UNL1       -0.3037
     23 C         -20.6996   -4.3517  -24.7857 C.3     1  UNL1        0.0888
     24 C         -19.1737   -4.2105  -24.5538 C.3     1  UNL1       -0.0160
     25 C         -18.3480   -5.2468  -25.3603 C.3     1  UNL1        0.0390
     26 C         -18.6648   -6.7132  -25.0215 C.3     1  UNL1       -0.0262
     27 C         -17.3222   -7.4526  -25.0164 C.3     1  UNL1        0.0123
     28 N         -16.3385   -6.3983  -24.9233 N.am    1  UNL1       -0.3151
     29 C         -16.8452   -5.1864  -25.1244 C.2     1  UNL1        0.2162
     30 O         -16.1895   -4.1538  -25.1663 O.2     1  UNL1       -0.2755
     31 C         -21.5728   -3.5309  -23.8068 C.2     1  UNL1        0.2079
     32 O         -21.1140   -2.9714  -22.8121 O.2     1  UNL1       -0.2879
     33 C         -23.0362   -3.4289  -24.0961 C.ar    1  UNL1        0.1465
     34 N         -23.8295   -2.3590  -23.9145 N.ar    1  UNL1       -0.2360
     35 C         -25.1159   -2.6406  -24.3868 C.ar    1  UNL1        0.0790
     36 C         -26.2301   -1.7745  -24.4681 C.ar    1  UNL1       -0.0352
     37 C         -27.4364   -2.2131  -25.0521 C.ar    1  UNL1       -0.0597
     38 C         -27.5920   -3.5206  -25.5241 C.ar    1  UNL1       -0.0606
     39 C         -26.5169   -4.4088  -25.4276 C.ar    1  UNL1       -0.0459
     40 C         -25.3023   -3.9639  -24.8826 C.ar    1  UNL1        0.0396
     41 S         -23.8352   -4.8773  -24.7123 S.2     1  UNL1       -0.0643
     42 H         -21.2871  -13.2410  -34.9228 H       1  UNL1        0.0660
     43 H         -21.5963  -12.6068  -33.3115 H       1  UNL1        0.0660
     44 H         -21.8711  -11.5926  -34.7471 H       1  UNL1        0.0660
     45 H         -17.4527  -11.1121  -33.8100 H       1  UNL1        0.0655
     46 H         -16.7457   -9.2314  -32.3437 H       1  UNL1        0.0639
     47 H         -17.8365   -7.1772  -30.6424 H       1  UNL1        0.1660
     48 H         -21.9506   -7.9376  -31.0702 H       1  UNL1        0.0646
     49 H         -21.5904  -10.2556  -32.8706 H       1  UNL1        0.0661
     50 H         -22.0341   -6.0538  -29.8387 H       1  UNL1        0.1498
     51 H         -20.8923   -3.6095  -28.7416 H       1  UNL1        0.0595
     52 H         -23.3113   -3.2342  -28.1058 H       1  UNL1        0.0290
     53 H         -23.6709   -4.8648  -28.5581 H       1  UNL1        0.0290
     54 H         -22.5854   -4.0456  -30.9340 H       1  UNL1        0.0296
     55 H         -23.2592   -1.7720  -31.4837 H       1  UNL1        0.0232
     56 H         -23.8340   -1.4920  -29.8481 H       1  UNL1        0.0232
     57 H         -22.1192   -1.7267  -30.1492 H       1  UNL1        0.0232
     58 H         -24.8952   -3.6278  -31.6902 H       1  UNL1        0.0232
     59 H         -24.7398   -5.1015  -30.7624 H       1  UNL1        0.0232
     60 H         -25.4292   -3.6847  -29.9922 H       1  UNL1        0.0232
     61 H         -20.7763   -3.0713  -26.4914 H       1  UNL1        0.1495
     62 H         -20.9510   -5.3916  -24.5821 H       1  UNL1        0.0582
     63 H         -18.9544   -4.3281  -23.4944 H       1  UNL1        0.0295
     64 H         -18.8471   -3.2034  -24.8161 H       1  UNL1        0.0295
     65 H         -18.4912   -5.0861  -26.4294 H       1  UNL1        0.0395
     66 H         -19.3680   -7.1584  -25.7265 H       1  UNL1        0.0288
     67 H         -19.1109   -6.7833  -24.0317 H       1  UNL1        0.0288
     68 H         -17.1667   -8.0030  -25.9458 H       1  UNL1        0.0462
     69 H         -17.2395   -8.1483  -24.1807 H       1  UNL1        0.0462
     70 H         -15.3496   -6.5857  -24.8128 H       1  UNL1        0.1487
     71 H         -26.1649   -0.7619  -24.1097 H       1  UNL1        0.0639
     72 H         -28.2887   -1.5686  -25.1101 H       1  UNL1        0.0618
     73 H         -28.5323   -3.8372  -25.9519 H       1  UNL1        0.0618
     74 H         -26.6142   -5.4226  -25.7881 H       1  UNL1        0.0629
@<TRIPOS>BOND
     1     1     2    1
     2     1    42    1
     3     1    43    1
     4     1    44    1
     5     2     3    1
     6     3    11   ar
     7     3     4   ar
     8     4     5   ar
     9     4    45    1
    10     5     6   ar
    11     5    46    1
    12     6    10   ar
    13     6     7   ar
    14     7     8   ar
    15     7    47    1
    16     8     9   ar
    17     8    12    1
    18     9    10   ar
    19     9    48    1
    20    10    11   ar
    21    11    49    1
    22    12    13    2
    23    12    14   am
    24    14    15    1
    25    14    50    1
    26    15    16    1
    27    15    20    1
    28    15    51    1
    29    16    17    1
    30    16    52    1
    31    16    53    1
    32    17    18    1
    33    17    19    1
    34    17    54    1
    35    18    55    1
    36    18    56    1
    37    18    57    1
    38    19    58    1
    39    19    59    1
    40    19    60    1
    41    20    21    2
    42    20    22   am
    43    22    23    1
    44    22    61    1
    45    23    24    1
    46    23    31    1
    47    23    62    1
    48    24    25    1
    49    24    63    1
    50    24    64    1
    51    25    29    1
    52    25    26    1
    53    25    65    1
    54    26    27    1
    55    26    66    1
    56    26    67    1
    57    27    28    1
    58    27    68    1
    59    27    69    1
    60    28    29   am
    61    28    70    1
    62    29    30    2
    63    31    32    2
    64    31    33    1
    65    33    41   ar
    66    33    34   ar
    67    34    35   ar
    68    35    40   ar
    69    35    36   ar
    70    36    37   ar
    71    36    71    1
    72    37    38   ar
    73    37    72    1
    74    38    39   ar
    75    38    73    1
    76    39    40   ar
    77    39    74    1
    78    40    41   ar
