@<TRIPOS>MOLECULE
*****
 60 62 0 0 0
SMALL
GASTEIGER
****
Schrodinger Suite 2019-4.
@<TRIPOS>ATOM
      1 C         -26.3071   -3.4742  -30.0080 C.3     1  UNL1       -0.0587
      2 C         -24.8324   -3.4966  -30.4386 C.3     1  UNL1       -0.0215
      3 C         -24.6296   -4.3581  -31.6942 C.3     1  UNL1       -0.0587
      4 C         -23.9341   -3.9515  -29.2978 C.ar    1  UNL1       -0.0447
      5 C         -22.9527   -3.0838  -28.7689 C.ar    1  UNL1       -0.0566
      6 C         -22.1377   -3.5033  -27.7006 C.ar    1  UNL1       -0.0400
      7 C         -22.3054   -4.7883  -27.1485 C.ar    1  UNL1        0.0379
      8 C         -23.2767   -5.6622  -27.6804 C.ar    1  UNL1       -0.0400
      9 C         -24.0855   -5.2430  -28.7495 C.ar    1  UNL1       -0.0566
     10 N         -21.4680   -5.2369  -26.0943 N.am    1  UNL1       -0.2488
     11 C         -20.3374   -6.1481  -26.4538 C.3     1  UNL1        0.1338
     12 C         -19.9874   -6.2083  -27.9625 C.2     1  UNL1        0.2389
     13 O         -19.3258   -5.3153  -28.4940 O.2     1  UNL1       -0.2734
     14 N         -20.4696   -7.2697  -28.6308 N.am    1  UNL1       -0.3087
     15 C         -20.3443   -7.5939  -30.0543 C.3     1  UNL1        0.0262
     16 C         -21.3582   -8.7123  -30.3487 C.3     1  UNL1       -0.0442
     17 C         -18.9207   -8.1122  -30.3301 C.3     1  UNL1       -0.0442
     18 C         -20.6858   -6.3856  -30.9572 C.3     1  UNL1       -0.0442
     19 C         -19.0263   -5.7716  -25.8162 C.ar    1  UNL1        0.0002
     20 C         -18.1137   -6.7733  -25.4073 C.ar    1  UNL1       -0.0534
     21 C         -16.8529   -6.4194  -24.8971 C.ar    1  UNL1       -0.0433
     22 C         -16.5369   -5.0555  -24.8012 C.ar    1  UNL1        0.0276
     23 N         -17.3906   -4.0777  -25.1568 N.ar    1  UNL1       -0.2629
     24 C         -18.5949   -4.4349  -25.6468 C.ar    1  UNL1        0.0330
     25 C         -21.8724   -5.1539  -24.7918 C.2     1  UNL1        0.2870
     26 O         -21.3065   -5.7867  -23.9081 O.2     1  UNL1       -0.2662
     27 C         -23.0100   -4.2961  -24.3495 C.ar    1  UNL1        0.1896
     28 C         -24.1274   -3.7623  -24.9431 C.ar    1  UNL1       -0.0113
     29 C         -24.8473   -3.0686  -23.9310 C.ar    1  UNL1       -0.0231
     30 C         -24.1469   -3.2507  -22.7794 C.ar    1  UNL1        0.0928
     31 O         -23.0392   -3.9954  -23.0148 O.2     1  UNL1       -0.4583
     32 H         -26.4455   -2.8622  -29.1171 H       1  UNL1        0.0235
     33 H         -26.9439   -3.0694  -30.7956 H       1  UNL1        0.0235
     34 H         -26.6660   -4.4739  -29.7689 H       1  UNL1        0.0235
     35 H         -24.5544   -2.4732  -30.6952 H       1  UNL1        0.0343
     36 H         -23.5988   -4.3095  -32.0458 H       1  UNL1        0.0235
     37 H         -24.8692   -5.4049  -31.5097 H       1  UNL1        0.0235
     38 H         -25.2735   -4.0167  -32.5027 H       1  UNL1        0.0235
     39 H         -22.8200   -2.0940  -29.1801 H       1  UNL1        0.0621
     40 H         -21.3779   -2.8505  -27.3055 H       1  UNL1        0.0636
     41 H         -23.3975   -6.6555  -27.2733 H       1  UNL1        0.0636
     42 H         -24.8253   -5.9201  -29.1471 H       1  UNL1        0.0621
     43 H         -20.6233   -7.1521  -26.1393 H       1  UNL1        0.0652
     44 H         -20.9779   -7.9469  -28.0784 H       1  UNL1        0.1493
     45 H         -21.3127   -9.0227  -31.3930 H       1  UNL1        0.0250
     46 H         -21.1713   -9.5968  -29.7390 H       1  UNL1        0.0250
     47 H         -22.3793   -8.3840  -30.1491 H       1  UNL1        0.0250
     48 H         -18.7703   -8.3226  -31.3893 H       1  UNL1        0.0250
     49 H         -18.1638   -7.3930  -30.0253 H       1  UNL1        0.0250
     50 H         -18.7209   -9.0316  -29.7794 H       1  UNL1        0.0250
     51 H         -20.7384   -6.6818  -32.0050 H       1  UNL1        0.0250
     52 H         -21.6507   -5.9511  -30.6926 H       1  UNL1        0.0250
     53 H         -19.9395   -5.5952  -30.8996 H       1  UNL1        0.0250
     54 H         -18.3694   -7.8176  -25.5118 H       1  UNL1        0.0622
     55 H         -16.1358   -7.1729  -24.6060 H       1  UNL1        0.0633
     56 H         -15.5690   -4.7456  -24.4466 H       1  UNL1        0.0829
     57 H         -19.2265   -3.6177  -25.9576 H       1  UNL1        0.0833
     58 H         -24.4194   -3.8424  -25.9786 H       1  UNL1        0.0657
     59 H         -25.7655   -2.5112  -24.0251 H       1  UNL1        0.0649
     60 H         -24.2861   -2.9350  -21.7583 H       1  UNL1        0.1029
@<TRIPOS>BOND
     1     1     2    1
     2     1    32    1
     3     1    33    1
     4     1    34    1
     5     2     3    1
     6     2     4    1
     7     2    35    1
     8     3    36    1
     9     3    37    1
    10     3    38    1
    11     4     9   ar
    12     4     5   ar
    13     5     6   ar
    14     5    39    1
    15     6     7   ar
    16     6    40    1
    17     7     8   ar
    18     7    10    1
    19     8     9   ar
    20     8    41    1
    21     9    42    1
    22    10    11    1
    23    10    25   am
    24    11    12    1
    25    11    19    1
    26    11    43    1
    27    12    13    2
    28    12    14   am
    29    14    15    1
    30    14    44    1
    31    15    16    1
    32    15    17    1
    33    15    18    1
    34    16    45    1
    35    16    46    1
    36    16    47    1
    37    17    48    1
    38    17    49    1
    39    17    50    1
    40    18    51    1
    41    18    52    1
    42    18    53    1
    43    19    24   ar
    44    19    20   ar
    45    20    21   ar
    46    20    54    1
    47    21    22   ar
    48    21    55    1
    49    22    23   ar
    50    22    56    1
    51    23    24   ar
    52    24    57    1
    53    25    26    2
    54    25    27    1
    55    27    31   ar
    56    27    28   ar
    57    28    29   ar
    58    28    58    1
    59    29    30   ar
    60    29    59    1
    61    30    31   ar
    62    30    60    1
