
                    3D
 Schrodinger Suite 2019-4.
 60 62  0  0  1  0            999 V2000
  -26.3071   -3.4742  -30.0080 C   0  0  0  0  0  0
  -24.8324   -3.4966  -30.4386 C   0  0  0  0  0  0
  -24.6296   -4.3581  -31.6942 C   0  0  0  0  0  0
  -23.9341   -3.9515  -29.2978 C   0  0  0  0  0  0
  -22.9527   -3.0838  -28.7689 C   0  0  0  0  0  0
  -22.1377   -3.5033  -27.7006 C   0  0  0  0  0  0
  -22.3054   -4.7883  -27.1485 C   0  0  0  0  0  0
  -23.2767   -5.6622  -27.6804 C   0  0  0  0  0  0
  -24.0855   -5.2430  -28.7495 C   0  0  0  0  0  0
  -21.4680   -5.2369  -26.0943 N   0  0  0  0  0  0
  -20.3374   -6.1481  -26.4538 C   0  0  1  0  0  0
  -19.9874   -6.2083  -27.9625 C   0  0  0  0  0  0
  -19.3258   -5.3153  -28.4940 O   0  0  0  0  0  0
  -20.4696   -7.2697  -28.6308 N   0  0  0  0  0  0
  -20.3443   -7.5939  -30.0543 C   0  0  0  0  0  0
  -21.3582   -8.7123  -30.3487 C   0  0  0  0  0  0
  -18.9207   -8.1122  -30.3301 C   0  0  0  0  0  0
  -20.6858   -6.3856  -30.9572 C   0  0  0  0  0  0
  -19.0263   -5.7716  -25.8162 C   0  0  0  0  0  0
  -18.1137   -6.7733  -25.4073 C   0  0  0  0  0  0
  -16.8529   -6.4194  -24.8971 C   0  0  0  0  0  0
  -16.5369   -5.0555  -24.8012 C   0  0  0  0  0  0
  -17.3906   -4.0777  -25.1568 N   0  0  0  0  0  0
  -18.5949   -4.4349  -25.6468 C   0  0  0  0  0  0
  -21.8724   -5.1539  -24.7918 C   0  0  0  0  0  0
  -21.3065   -5.7867  -23.9081 O   0  0  0  0  0  0
  -23.0100   -4.2961  -24.3495 C   0  0  0  0  0  0
  -24.1274   -3.7623  -24.9431 C   0  0  0  0  0  0
  -24.8473   -3.0686  -23.9310 C   0  0  0  0  0  0
  -24.1469   -3.2507  -22.7794 C   0  0  0  0  0  0
  -23.0392   -3.9954  -23.0148 O   0  0  0  0  0  0
  -26.4455   -2.8622  -29.1171 H   0  0  0  0  0  0
  -26.9439   -3.0694  -30.7956 H   0  0  0  0  0  0
  -26.6660   -4.4739  -29.7689 H   0  0  0  0  0  0
  -24.5544   -2.4732  -30.6952 H   0  0  0  0  0  0
  -23.5988   -4.3095  -32.0458 H   0  0  0  0  0  0
  -24.8692   -5.4049  -31.5097 H   0  0  0  0  0  0
  -25.2735   -4.0167  -32.5027 H   0  0  0  0  0  0
  -22.8200   -2.0940  -29.1801 H   0  0  0  0  0  0
  -21.3779   -2.8505  -27.3055 H   0  0  0  0  0  0
  -23.3975   -6.6555  -27.2733 H   0  0  0  0  0  0
  -24.8253   -5.9201  -29.1471 H   0  0  0  0  0  0
  -20.6233   -7.1521  -26.1393 H   0  0  0  0  0  0
  -20.9779   -7.9469  -28.0784 H   0  0  0  0  0  0
  -21.3127   -9.0227  -31.3930 H   0  0  0  0  0  0
  -21.1713   -9.5968  -29.7390 H   0  0  0  0  0  0
  -22.3793   -8.3840  -30.1491 H   0  0  0  0  0  0
  -18.7703   -8.3226  -31.3893 H   0  0  0  0  0  0
  -18.1638   -7.3930  -30.0253 H   0  0  0  0  0  0
  -18.7209   -9.0316  -29.7794 H   0  0  0  0  0  0
  -20.7384   -6.6818  -32.0050 H   0  0  0  0  0  0
  -21.6507   -5.9511  -30.6926 H   0  0  0  0  0  0
  -19.9395   -5.5952  -30.8996 H   0  0  0  0  0  0
  -18.3694   -7.8176  -25.5118 H   0  0  0  0  0  0
  -16.1358   -7.1729  -24.6060 H   0  0  0  0  0  0
  -15.5690   -4.7456  -24.4466 H   0  0  0  0  0  0
  -19.2265   -3.6177  -25.9576 H   0  0  0  0  0  0
  -24.4194   -3.8424  -25.9786 H   0  0  0  0  0  0
  -25.7655   -2.5112  -24.0251 H   0  0  0  0  0  0
  -24.2861   -2.9350  -21.7583 H   0  0  0  0  0  0
  1  2  1  0  0  0
  1 32  1  0  0  0
  1 33  1  0  0  0
  1 34  1  0  0  0
  2  3  1  0  0  0
  2  4  1  0  0  0
  2 35  1  0  0  0
  3 36  1  0  0  0
  3 37  1  0  0  0
  3 38  1  0  0  0
  4  9  1  0  0  0
  4  5  2  0  0  0
  5  6  1  0  0  0
  5 39  1  0  0  0
  6  7  2  0  0  0
  6 40  1  0  0  0
  7  8  1  0  0  0
  7 10  1  0  0  0
  8  9  2  0  0  0
  8 41  1  0  0  0
  9 42  1  0  0  0
 10 11  1  0  0  0
 10 25  1  0  0  0
 11 12  1  0  0  0
 11 19  1  0  0  0
 11 43  1  0  0  0
 12 13  2  0  0  0
 12 14  1  0  0  0
 14 15  1  0  0  0
 14 44  1  0  0  0
 15 16  1  0  0  0
 15 17  1  0  0  0
 15 18  1  0  0  0
 16 45  1  0  0  0
 16 46  1  0  0  0
 16 47  1  0  0  0
 17 48  1  0  0  0
 17 49  1  0  0  0
 17 50  1  0  0  0
 18 51  1  0  0  0
 18 52  1  0  0  0
 18 53  1  0  0  0
 19 24  1  0  0  0
 19 20  2  0  0  0
 20 21  1  0  0  0
 20 54  1  0  0  0
 21 22  2  0  0  0
 21 55  1  0  0  0
 22 23  1  0  0  0
 22 56  1  0  0  0
 23 24  2  0  0  0
 24 57  1  0  0  0
 25 26  2  0  0  0
 25 27  1  0  0  0
 27 31  1  0  0  0
 27 28  2  0  0  0
 28 29  1  0  0  0
 28 58  1  0  0  0
 29 30  2  0  0  0
 29 59  1  0  0  0
 30 31  1  0  0  0
 30 60  1  0  0  0
M  END
$$$$
