@<TRIPOS>MOLECULE
*****
 80 82 0 0 0
SMALL
GASTEIGER
****
Schrodinger Suite 2019-4.
@<TRIPOS>ATOM
      1 C         -26.1588   -0.0883  -24.1513 C.3     1  UNL1       -0.0306
      2 C         -24.6879   -0.3453  -23.9280 C.3     1  UNL1        0.0900
      3 O         -24.3906   -1.6971  -24.1011 O.3     1  UNL1       -0.4618
      4 C         -24.4878   -2.5882  -23.1049 C.2     1  UNL1        0.3317
      5 O         -25.2430   -2.5082  -22.1389 O.2     1  UNL1       -0.2456
      6 C         -23.5135   -3.6612  -23.2967 C.2     1  UNL1        0.0203
      7 C         -22.4245   -3.4274  -24.0421 C.2     1  UNL1       -0.0569
      8 C         -21.3813   -4.4136  -24.4522 C.3     1  UNL1        0.0460
      9 C         -20.0469   -4.1135  -23.7646 C.3     1  UNL1       -0.0056
     10 C         -18.8920   -4.7990  -24.4484 C.ar    1  UNL1       -0.0453
     11 C         -18.8107   -6.2036  -24.4317 C.ar    1  UNL1       -0.0585
     12 C         -17.6995   -6.8509  -24.9879 C.ar    1  UNL1       -0.0615
     13 C         -16.6849   -6.0904  -25.5872 C.ar    1  UNL1       -0.0617
     14 C         -16.7960   -4.6884  -25.6671 C.ar    1  UNL1       -0.0615
     15 C         -17.9073   -4.0423  -25.1027 C.ar    1  UNL1       -0.0585
     16 N         -21.2769   -4.3136  -25.9024 N.am    1  UNL1       -0.3072
     17 C         -22.2250   -4.7574  -26.7363 C.2     1  UNL1        0.2341
     18 O         -23.2235   -5.3685  -26.3510 O.2     1  UNL1       -0.2738
     19 C         -22.0129   -4.4730  -28.2218 C.3     1  UNL1        0.1034
     20 C         -23.3705   -4.0656  -28.8311 C.3     1  UNL1       -0.0007
     21 C         -23.2747   -3.6159  -30.2681 C.ar    1  UNL1       -0.0450
     22 C         -22.5646   -2.4418  -30.5705 C.ar    1  UNL1       -0.0558
     23 C         -22.3276   -2.0922  -31.9060 C.ar    1  UNL1       -0.0262
     24 C         -22.8606   -2.8816  -32.9381 C.ar    1  UNL1        0.1234
     25 F         -22.5370   -2.6033  -34.2164 F       1  UNL1       -0.2055
     26 C         -23.6683   -3.9961  -32.6407 C.ar    1  UNL1       -0.0262
     27 C         -23.8530   -4.3801  -31.3019 C.ar    1  UNL1       -0.0558
     28 N         -21.5982   -5.7223  -28.8355 N.am    1  UNL1       -0.3022
     29 C         -20.3460   -6.1964  -28.8832 C.2     1  UNL1        0.2342
     30 O         -19.3571   -5.5450  -28.5406 O.2     1  UNL1       -0.2738
     31 C         -20.2156   -7.6427  -29.3820 C.3     1  UNL1        0.1020
     32 N         -19.3445   -8.4246  -28.5097 N.am    1  UNL1       -0.2984
     33 C         -18.0201   -8.6055  -28.5682 C.2     1  UNL1        0.2663
     34 O         -17.2853   -8.1152  -29.4223 O.2     1  UNL1       -0.2684
     35 C         -17.4918   -9.4949  -27.4871 C.ar    1  UNL1        0.1678
     36 N         -18.1764  -10.0523  -26.4989 N.ar    1  UNL1       -0.0734
     37 O         -17.2349  -10.7408  -25.7257 O.2     1  UNL1       -0.3592
     38 C         -16.0114  -10.5787  -26.2931 C.ar    1  UNL1        0.1350
     39 C         -14.8587  -11.2173  -25.5996 C.3     1  UNL1       -0.0037
     40 C         -16.1163   -9.8337  -27.4310 C.ar    1  UNL1        0.0125
     41 C         -19.9965   -7.8053  -30.9146 C.3     1  UNL1       -0.0197
     42 C         -21.2590   -7.3508  -31.6612 C.3     1  UNL1       -0.0605
     43 C         -19.6802   -9.2426  -31.3753 C.3     1  UNL1       -0.0605
     44 H         -26.7541   -0.4563  -23.3206 H       1  UNL1        0.0262
     45 H         -26.3204    0.9806  -24.2694 H       1  UNL1        0.0262
     46 H         -26.5053   -0.5901  -25.0507 H       1  UNL1        0.0262
     47 H         -24.3462   -0.0521  -22.9497 H       1  UNL1        0.0695
     48 H         -24.1082    0.2327  -24.6445 H       1  UNL1        0.0695
     49 H         -23.7021   -4.6238  -22.8554 H       1  UNL1        0.0686
     50 H         -22.2492   -2.4546  -24.4569 H       1  UNL1        0.0593
     51 H         -21.6925   -5.4246  -24.1938 H       1  UNL1        0.0546
     52 H         -20.0821   -4.4291  -22.7244 H       1  UNL1        0.0334
     53 H         -19.8500   -3.0438  -23.7313 H       1  UNL1        0.0334
     54 H         -19.5910   -6.7918  -23.9810 H       1  UNL1        0.0620
     55 H         -17.6163   -7.9254  -24.9375 H       1  UNL1        0.0618
     56 H         -15.8263   -6.6022  -25.9817 H       1  UNL1        0.0618
     57 H         -16.0248   -4.1003  -26.1366 H       1  UNL1        0.0618
     58 H         -18.0053   -2.9699  -25.1495 H       1  UNL1        0.0620
     59 H         -20.4650   -3.8511  -26.2867 H       1  UNL1        0.1493
     60 H         -21.2667   -3.6886  -28.3607 H       1  UNL1        0.0598
     61 H         -23.8049   -3.2492  -28.2623 H       1  UNL1        0.0336
     62 H         -24.0858   -4.8858  -28.7617 H       1  UNL1        0.0336
     63 H         -22.1521   -1.8392  -29.7790 H       1  UNL1        0.0621
     64 H         -21.7070   -1.2379  -32.1305 H       1  UNL1        0.0646
     65 H         -24.0783   -4.5998  -33.4361 H       1  UNL1        0.0646
     66 H         -24.4177   -5.2719  -31.0779 H       1  UNL1        0.0621
     67 H         -22.3421   -6.3264  -29.1613 H       1  UNL1        0.1495
     68 H         -21.1809   -8.1097  -29.1781 H       1  UNL1        0.0597
     69 H         -19.8083   -8.8926  -27.7443 H       1  UNL1        0.1498
     70 H         -13.9135  -10.8118  -25.9609 H       1  UNL1        0.0309
     71 H         -14.9094  -11.0419  -24.5250 H       1  UNL1        0.0309
     72 H         -14.8551  -12.2937  -25.7700 H       1  UNL1        0.0309
     73 H         -15.3333   -9.5517  -28.1145 H       1  UNL1        0.0676
     74 H         -19.1657   -7.1684  -31.2212 H       1  UNL1        0.0318
     75 H         -21.1528   -7.5011  -32.7306 H       1  UNL1        0.0233
     76 H         -22.1255   -7.9360  -31.3576 H       1  UNL1        0.0233
     77 H         -21.4933   -6.3031  -31.4853 H       1  UNL1        0.0233
     78 H         -19.6322   -9.3052  -32.4628 H       1  UNL1        0.0233
     79 H         -18.7213   -9.6053  -31.0115 H       1  UNL1        0.0233
     80 H         -20.4493   -9.9395  -31.0390 H       1  UNL1        0.0233
@<TRIPOS>BOND
     1     1     2    1
     2     1    44    1
     3     1    45    1
     4     1    46    1
     5     2     3    1
     6     2    47    1
     7     2    48    1
     8     3     4    1
     9     4     5    2
    10     4     6    1
    11     6     7    2
    12     6    49    1
    13     7     8    1
    14     7    50    1
    15     8     9    1
    16     8    16    1
    17     8    51    1
    18     9    10    1
    19     9    52    1
    20     9    53    1
    21    10    15   ar
    22    10    11   ar
    23    11    12   ar
    24    11    54    1
    25    12    13   ar
    26    12    55    1
    27    13    14   ar
    28    13    56    1
    29    14    15   ar
    30    14    57    1
    31    15    58    1
    32    16    17   am
    33    16    59    1
    34    17    18    2
    35    17    19    1
    36    19    20    1
    37    19    28    1
    38    19    60    1
    39    20    21    1
    40    20    61    1
    41    20    62    1
    42    21    27   ar
    43    21    22   ar
    44    22    23   ar
    45    22    63    1
    46    23    24   ar
    47    23    64    1
    48    24    25    1
    49    24    26   ar
    50    26    27   ar
    51    26    65    1
    52    27    66    1
    53    28    29   am
    54    28    67    1
    55    29    30    2
    56    29    31    1
    57    31    32    1
    58    31    41    1
    59    31    68    1
    60    32    33   am
    61    32    69    1
    62    33    34    2
    63    33    35    1
    64    35    40   ar
    65    35    36   ar
    66    36    37   ar
    67    37    38   ar
    68    38    39    1
    69    38    40   ar
    70    39    70    1
    71    39    71    1
    72    39    72    1
    73    40    73    1
    74    41    42    1
    75    41    43    1
    76    41    74    1
    77    42    75    1
    78    42    76    1
    79    42    77    1
    80    43    78    1
    81    43    79    1
    82    43    80    1
