@<TRIPOS>MOLECULE
*****
 74 78 0 0 0
SMALL
GASTEIGER
****
Schrodinger Suite 2019-4.
@<TRIPOS>ATOM
      1 C         -22.2738  -11.5860  -33.4251 C.3     1  UNL1        0.0788
      2 O         -21.8627  -10.4077  -32.7488 O.3     1  UNL1       -0.4945
      3 C         -20.5170  -10.1144  -32.7036 C.ar    1  UNL1        0.1292
      4 C         -20.1419   -9.0078  -31.9033 C.ar    1  UNL1        0.0420
      5 C         -20.8621   -8.0479  -31.1093 C.ar    1  UNL1       -0.0206
      6 C         -19.9329   -7.2076  -30.5490 C.ar    1  UNL1        0.1029
      7 N         -18.6790   -7.6233  -30.9538 N.ar    1  UNL1       -0.3505
      8 C         -18.7554   -8.7016  -31.8039 C.ar    1  UNL1        0.0505
      9 C         -17.7716   -9.4294  -32.4910 C.ar    1  UNL1       -0.0376
     10 C         -18.1626  -10.5087  -33.2993 C.ar    1  UNL1       -0.0563
     11 C         -19.5249  -10.8535  -33.4001 C.ar    1  UNL1       -0.0192
     12 C         -20.0184   -6.0376  -29.6552 C.2     1  UNL1        0.2610
     13 O         -19.0066   -5.5252  -29.1782 O.2     1  UNL1       -0.2686
     14 N         -21.2497   -5.5718  -29.4135 N.am    1  UNL1       -0.2988
     15 C         -21.5576   -4.4485  -28.5261 C.3     1  UNL1        0.0999
     16 C         -23.0154   -4.0216  -28.7658 C.3     1  UNL1       -0.0236
     17 C         -23.3045   -3.5669  -30.2123 C.3     1  UNL1       -0.0446
     18 C         -23.0490   -2.0693  -30.4262 C.3     1  UNL1       -0.0626
     19 C         -24.7333   -3.9263  -30.5900 C.3     1  UNL1       -0.0626
     20 C         -21.4197   -4.9149  -27.0719 C.2     1  UNL1        0.2339
     21 O         -21.7091   -6.0758  -26.7764 O.2     1  UNL1       -0.2738
     22 N         -20.9892   -4.0226  -26.1653 N.am    1  UNL1       -0.3037
     23 C         -20.6888   -4.3701  -24.7712 C.3     1  UNL1        0.0888
     24 C         -19.1629   -4.2206  -24.5468 C.3     1  UNL1       -0.0160
     25 C         -18.3362   -5.2538  -25.3560 C.3     1  UNL1        0.0390
     26 C         -18.6477   -6.7206  -25.0143 C.3     1  UNL1       -0.0262
     27 C         -17.3032   -7.4564  -25.0143 C.3     1  UNL1        0.0123
     28 N         -16.3224   -6.3992  -24.9250 N.am    1  UNL1       -0.3151
     29 C         -16.8329   -5.1888  -25.1248 C.2     1  UNL1        0.2162
     30 O         -16.1800   -4.1544  -25.1696 O.2     1  UNL1       -0.2755
     31 C         -21.5633   -3.5624  -23.7837 C.2     1  UNL1        0.2079
     32 O         -21.0996   -2.9843  -22.8023 O.2     1  UNL1       -0.2879
     33 C         -23.0338   -3.4973  -24.0464 C.ar    1  UNL1        0.1465
     34 N         -23.8501   -2.4487  -23.8448 N.ar    1  UNL1       -0.2360
     35 C         -25.1400   -2.7637  -24.2863 C.ar    1  UNL1        0.0790
     36 C         -26.2734   -1.9204  -24.3523 C.ar    1  UNL1       -0.0352
     37 C         -27.4840   -2.3840  -24.9088 C.ar    1  UNL1       -0.0597
     38 C         -27.6231   -3.7056  -25.3500 C.ar    1  UNL1       -0.0606
     39 C         -26.5295   -4.5733  -25.2660 C.ar    1  UNL1       -0.0459
     40 C         -25.3081   -4.0947  -24.7669 C.ar    1  UNL1        0.0396
     41 S         -23.8067   -4.9624  -24.6577 S.2     1  UNL1       -0.0643
     42 H         -23.3555  -11.6872  -33.3393 H       1  UNL1        0.0660
     43 H         -22.0305  -11.5508  -34.4872 H       1  UNL1        0.0660
     44 H         -21.8218  -12.4745  -32.9826 H       1  UNL1        0.0660
     45 H         -21.9337   -8.0121  -30.9981 H       1  UNL1        0.0647
     46 H         -17.8354   -7.1243  -30.6980 H       1  UNL1        0.1660
     47 H         -16.7288   -9.1621  -32.3999 H       1  UNL1        0.0638
     48 H         -17.4185  -11.0784  -33.8369 H       1  UNL1        0.0619
     49 H         -19.7852  -11.6966  -34.0219 H       1  UNL1        0.0654
     50 H         -22.0354   -6.0625  -29.8188 H       1  UNL1        0.1498
     51 H         -20.8847   -3.6153  -28.7246 H       1  UNL1        0.0595
     52 H         -23.2944   -3.2310  -28.0682 H       1  UNL1        0.0290
     53 H         -23.6647   -4.8629  -28.5141 H       1  UNL1        0.0290
     54 H         -22.6659   -4.1038  -30.9125 H       1  UNL1        0.0296
     55 H         -23.2287   -1.7858  -31.4629 H       1  UNL1        0.0232
     56 H         -23.6997   -1.4590  -29.8016 H       1  UNL1        0.0232
     57 H         -22.0232   -1.8019  -30.1878 H       1  UNL1        0.0232
     58 H         -24.9503   -3.5655  -31.5931 H       1  UNL1        0.0232
     59 H         -24.8937   -5.0024  -30.5955 H       1  UNL1        0.0232
     60 H         -25.4328   -3.4940  -29.8792 H       1  UNL1        0.0232
     61 H         -20.7868   -3.0793  -26.4674 H       1  UNL1        0.1495
     62 H         -20.9320   -5.4128  -24.5718 H       1  UNL1        0.0582
     63 H         -18.9375   -4.3363  -23.4888 H       1  UNL1        0.0295
     64 H         -18.8427   -3.2120  -24.8110 H       1  UNL1        0.0295
     65 H         -18.4837   -5.0945  -26.4250 H       1  UNL1        0.0395
     66 H         -19.3526   -7.1684  -25.7159 H       1  UNL1        0.0288
     67 H         -19.0889   -6.7913  -24.0222 H       1  UNL1        0.0288
     68 H         -17.1503   -8.0061  -25.9443 H       1  UNL1        0.0462
     69 H         -17.2150   -8.1517  -24.1789 H       1  UNL1        0.0462
     70 H         -15.3326   -6.5841  -24.8173 H       1  UNL1        0.1487
     71 H         -26.2154   -0.9017  -24.0094 H       1  UNL1        0.0639
     72 H         -28.3431   -1.7437  -24.9777 H       1  UNL1        0.0618
     73 H         -28.5647   -4.0465  -25.7558 H       1  UNL1        0.0618
     74 H         -26.6148   -5.5923  -25.6151 H       1  UNL1        0.0629
@<TRIPOS>BOND
     1     1     2    1
     2     1    42    1
     3     1    43    1
     4     1    44    1
     5     2     3    1
     6     3    11   ar
     7     3     4   ar
     8     4     8   ar
     9     4     5   ar
    10     5     6   ar
    11     5    45    1
    12     6     7   ar
    13     6    12    1
    14     7     8   ar
    15     7    46    1
    16     8     9   ar
    17     9    10   ar
    18     9    47    1
    19    10    11   ar
    20    10    48    1
    21    11    49    1
    22    12    13    2
    23    12    14   am
    24    14    15    1
    25    14    50    1
    26    15    16    1
    27    15    20    1
    28    15    51    1
    29    16    17    1
    30    16    52    1
    31    16    53    1
    32    17    18    1
    33    17    19    1
    34    17    54    1
    35    18    55    1
    36    18    56    1
    37    18    57    1
    38    19    58    1
    39    19    59    1
    40    19    60    1
    41    20    21    2
    42    20    22   am
    43    22    23    1
    44    22    61    1
    45    23    24    1
    46    23    31    1
    47    23    62    1
    48    24    25    1
    49    24    63    1
    50    24    64    1
    51    25    29    1
    52    25    26    1
    53    25    65    1
    54    26    27    1
    55    26    66    1
    56    26    67    1
    57    27    28    1
    58    27    68    1
    59    27    69    1
    60    28    29   am
    61    28    70    1
    62    29    30    2
    63    31    32    2
    64    31    33    1
    65    33    41   ar
    66    33    34   ar
    67    34    35   ar
    68    35    40   ar
    69    35    36   ar
    70    36    37   ar
    71    36    71    1
    72    37    38   ar
    73    37    72    1
    74    38    39   ar
    75    38    73    1
    76    39    40   ar
    77    39    74    1
    78    40    41   ar
