
                    3D
 Schrodinger Suite 2019-4.
 70 74  0  0  1  0            999 V2000
  -19.2050   -1.1512  -25.5997 C   0  0  0  0  0  0
  -18.6737   -2.5342  -25.9321 C   0  0  0  0  0  0
  -17.3488   -2.5358  -26.6827 C   0  0  0  0  0  0
  -19.6578   -3.4844  -26.6457 C   0  0  0  0  0  0
  -20.9577   -4.0038  -25.9878 C   0  0  2  0  0  0
  -20.8234   -4.3499  -24.5740 N   0  0  0  0  0  0
  -19.7098   -4.7009  -23.9163 C   0  0  0  0  0  0
  -19.4283   -4.1117  -22.8792 O   0  0  0  0  0  0
  -18.8270   -5.7563  -24.4987 C   0  0  0  0  0  0
  -19.1778   -6.9995  -24.9476 C   0  0  0  0  0  0
  -18.0206   -7.7116  -25.2094 N   0  0  0  0  0  0
  -16.9058   -6.9283  -25.0085 C   0  0  0  0  0  0
  -17.3942   -5.6497  -24.6126 C   0  0  0  0  0  0
  -16.4279   -4.6385  -24.4371 C   0  0  0  0  0  0
  -15.0909   -4.8492  -24.7911 C   0  0  0  0  0  0
  -14.6191   -6.1443  -25.0241 C   0  0  0  0  0  0
  -15.5341   -7.1997  -25.1252 C   0  0  0  0  0  0
  -21.5948   -5.1025  -26.8509 C   0  0  0  0  0  0
  -22.0056   -6.1559  -26.3673 O   0  0  0  0  0  0
  -21.5882   -4.8347  -28.1647 N   0  0  0  0  0  0
  -21.6313   -5.7923  -29.2574 C   0  0  1  0  0  0
  -22.1917   -5.0849  -30.5127 C   0  0  0  0  0  0
  -23.6505   -4.5932  -30.4316 C   0  0  2  0  0  0
  -24.3058   -4.4945  -31.8196 C   0  0  0  0  0  0
  -24.2529   -3.0088  -32.1963 C   0  0  0  0  0  0
  -24.0568   -2.3266  -30.9348 N   0  0  0  0  0  0
  -23.7393   -3.1519  -29.9408 C   0  0  0  0  0  0
  -23.5626   -2.8201  -28.7732 O   0  0  0  0  0  0
  -20.1723   -6.1939  -29.6013 C   0  0  0  0  0  0
  -19.2017   -5.5239  -29.2404 O   0  0  0  0  0  0
  -19.9209   -7.3754  -30.4746 C   0  0  0  0  0  0
  -18.7086   -7.7441  -30.9038 N   0  0  0  0  0  0
  -18.8113   -8.7978  -31.8018 C   0  0  0  0  0  0
  -17.7559   -9.4145  -32.5119 C   0  0  0  0  0  0
  -18.0079  -10.4722  -33.4088 C   0  0  0  0  0  0
  -19.3232  -10.9334  -33.6104 C   0  0  0  0  0  0
  -20.3901  -10.3386  -32.9147 C   0  0  0  0  0  0
  -20.1325   -9.2833  -32.0236 C   0  0  0  0  0  0
  -21.2680   -8.3743  -31.0408 S   0  0  0  0  0  0
  -20.1686   -0.9529  -26.0608 H   0  0  0  0  0  0
  -19.3349   -1.0925  -24.5261 H   0  0  0  0  0  0
  -18.5032   -0.3685  -25.8710 H   0  0  0  0  0  0
  -18.3993   -2.9153  -24.9699 H   0  0  0  0  0  0
  -17.2679   -3.4036  -27.3178 H   0  0  0  0  0  0
  -17.1509   -1.6219  -27.2305 H   0  0  0  0  0  0
  -16.5122   -2.6947  -26.0347 H   0  0  0  0  0  0
  -19.1003   -4.3723  -26.9440 H   0  0  0  0  0  0
  -19.9661   -2.9932  -27.5552 H   0  0  0  0  0  0
  -21.6692   -3.1771  -25.9986 H   0  0  0  0  0  0
  -21.4830   -3.8394  -24.0050 H   0  0  0  0  0  0
  -20.1508   -7.4576  -25.0429 H   0  0  0  0  0  0
  -18.0173   -8.6748  -25.5133 H   0  0  0  0  0  0
  -16.7130   -3.6557  -24.1143 H   0  0  0  0  0  0
  -14.4339   -4.0069  -24.8620 H   0  0  0  0  0  0
  -13.5661   -6.3242  -25.1490 H   0  0  0  0  0  0
  -15.1932   -8.1974  -25.3555 H   0  0  0  0  0  0
  -21.3094   -3.9001  -28.4262 H   0  0  0  0  0  0
  -22.2279   -6.6620  -28.9832 H   0  0  0  0  0  0
  -22.1419   -5.7840  -31.3433 H   0  0  0  0  0  0
  -21.5391   -4.2557  -30.7983 H   0  0  0  0  0  0
  -24.2396   -5.2439  -29.7859 H   0  0  0  0  0  0
  -25.3398   -4.8242  -31.7425 H   0  0  0  0  0  0
  -23.8466   -5.1260  -32.5806 H   0  0  0  0  0  0
  -25.1698   -2.6845  -32.6864 H   0  0  0  0  0  0
  -23.4106   -2.7962  -32.8560 H   0  0  0  0  0  0
  -24.1909   -1.3318  -30.8228 H   0  0  0  0  0  0
  -16.7435   -9.0652  -32.3655 H   0  0  0  0  0  0
  -17.1888  -10.9301  -33.9444 H   0  0  0  0  0  0
  -19.5115  -11.7456  -34.2974 H   0  0  0  0  0  0
  -21.4010  -10.6870  -33.0627 H   0  0  0  0  0  0
  1  2  1  0  0  0
  1 40  1  0  0  0
  1 41  1  0  0  0
  1 42  1  0  0  0
  2  3  1  0  0  0
  2  4  1  0  0  0
  2 43  1  0  0  0
  3 44  1  0  0  0
  3 45  1  0  0  0
  3 46  1  0  0  0
  4  5  1  0  0  0
  4 47  1  0  0  0
  4 48  1  0  0  0
  5  6  1  0  0  0
  5 18  1  0  0  0
  5 49  1  0  0  0
  6  7  1  0  0  0
  6 50  1  0  0  0
  7  8  2  0  0  0
  7  9  1  0  0  0
  9 13  1  0  0  0
  9 10  2  0  0  0
 10 11  1  0  0  0
 10 51  1  0  0  0
 11 12  1  0  0  0
 11 52  1  0  0  0
 12 17  1  0  0  0
 12 13  2  0  0  0
 13 14  1  0  0  0
 14 15  2  0  0  0
 14 53  1  0  0  0
 15 16  1  0  0  0
 15 54  1  0  0  0
 16 17  2  0  0  0
 16 55  1  0  0  0
 17 56  1  0  0  0
 18 19  2  0  0  0
 18 20  1  0  0  0
 20 21  1  0  0  0
 20 57  1  0  0  0
 21 22  1  0  0  0
 21 29  1  0  0  0
 21 58  1  0  0  0
 22 23  1  0  0  0
 22 59  1  0  0  0
 22 60  1  0  0  0
 23 27  1  0  0  0
 23 24  1  0  0  0
 23 61  1  0  0  0
 24 25  1  0  0  0
 24 62  1  0  0  0
 24 63  1  0  0  0
 25 26  1  0  0  0
 25 64  1  0  0  0
 25 65  1  0  0  0
 26 27  1  0  0  0
 26 66  1  0  0  0
 27 28  2  0  0  0
 29 30  2  0  0  0
 29 31  1  0  0  0
 31 39  1  0  0  0
 31 32  2  0  0  0
 32 33  1  0  0  0
 33 38  2  0  0  0
 33 34  1  0  0  0
 34 35  2  0  0  0
 34 67  1  0  0  0
 35 36  1  0  0  0
 35 68  1  0  0  0
 36 37  2  0  0  0
 36 69  1  0  0  0
 37 38  1  0  0  0
 37 70  1  0  0  0
 38 39  1  0  0  0
M  END
$$$$
