@<TRIPOS>MOLECULE
*****
 70 74 0 0 0
SMALL
GASTEIGER
****
Schrodinger Suite 2019-4.
@<TRIPOS>ATOM
      1 C         -19.2050   -1.1512  -25.5997 C.3     1  UNL1       -0.0626
      2 C         -18.6737   -2.5342  -25.9321 C.3     1  UNL1       -0.0446
      3 C         -17.3488   -2.5358  -26.6827 C.3     1  UNL1       -0.0626
      4 C         -19.6578   -3.4844  -26.6457 C.3     1  UNL1       -0.0236
      5 C         -20.9577   -4.0038  -25.9878 C.3     1  UNL1        0.0999
      6 N         -20.8234   -4.3499  -24.5740 N.am    1  UNL1       -0.3000
      7 C         -19.7098   -4.7009  -23.9163 C.2     1  UNL1        0.2467
      8 O         -19.4283   -4.1117  -22.8792 O.2     1  UNL1       -0.2701
      9 C         -18.8270   -5.7563  -24.4987 C.ar    1  UNL1        0.0617
     10 C         -19.1778   -6.9995  -24.9476 C.ar    1  UNL1        0.0149
     11 N         -18.0206   -7.7116  -25.2094 N.ar    1  UNL1       -0.3599
     12 C         -16.9058   -6.9283  -25.0085 C.ar    1  UNL1        0.0472
     13 C         -17.3942   -5.6497  -24.6126 C.ar    1  UNL1        0.0118
     14 C         -16.4279   -4.6385  -24.4371 C.ar    1  UNL1       -0.0519
     15 C         -15.0909   -4.8492  -24.7911 C.ar    1  UNL1       -0.0611
     16 C         -14.6191   -6.1443  -25.0241 C.ar    1  UNL1       -0.0598
     17 C         -15.5341   -7.1997  -25.1252 C.ar    1  UNL1       -0.0378
     18 C         -21.5948   -5.1025  -26.8509 C.2     1  UNL1        0.2339
     19 O         -22.0056   -6.1559  -26.3673 O.2     1  UNL1       -0.2738
     20 N         -21.5882   -4.8347  -28.1647 N.am    1  UNL1       -0.3037
     21 C         -21.6313   -5.7923  -29.2574 C.3     1  UNL1        0.0888
     22 C         -22.1917   -5.0849  -30.5127 C.3     1  UNL1       -0.0160
     23 C         -23.6505   -4.5932  -30.4316 C.3     1  UNL1        0.0390
     24 C         -24.3058   -4.4945  -31.8196 C.3     1  UNL1       -0.0262
     25 C         -24.2529   -3.0088  -32.1963 C.3     1  UNL1        0.0123
     26 N         -24.0568   -2.3266  -30.9348 N.am    1  UNL1       -0.3151
     27 C         -23.7393   -3.1519  -29.9408 C.2     1  UNL1        0.2162
     28 O         -23.5626   -2.8201  -28.7732 O.2     1  UNL1       -0.2755
     29 C         -20.1723   -6.1939  -29.6013 C.2     1  UNL1        0.2079
     30 O         -19.2017   -5.5239  -29.2404 O.2     1  UNL1       -0.2879
     31 C         -19.9209   -7.3754  -30.4746 C.ar    1  UNL1        0.1465
     32 N         -18.7086   -7.7441  -30.9038 N.ar    1  UNL1       -0.2360
     33 C         -18.8113   -8.7978  -31.8018 C.ar    1  UNL1        0.0790
     34 C         -17.7559   -9.4145  -32.5119 C.ar    1  UNL1       -0.0352
     35 C         -18.0079  -10.4722  -33.4088 C.ar    1  UNL1       -0.0597
     36 C         -19.3232  -10.9334  -33.6104 C.ar    1  UNL1       -0.0606
     37 C         -20.3901  -10.3386  -32.9147 C.ar    1  UNL1       -0.0459
     38 C         -20.1325   -9.2833  -32.0236 C.ar    1  UNL1        0.0396
     39 S         -21.2680   -8.3743  -31.0408 S.2     1  UNL1       -0.0643
     40 H         -20.1686   -0.9529  -26.0608 H       1  UNL1        0.0232
     41 H         -19.3349   -1.0925  -24.5261 H       1  UNL1        0.0232
     42 H         -18.5032   -0.3685  -25.8710 H       1  UNL1        0.0232
     43 H         -18.3993   -2.9153  -24.9699 H       1  UNL1        0.0296
     44 H         -17.2679   -3.4036  -27.3178 H       1  UNL1        0.0232
     45 H         -17.1509   -1.6219  -27.2305 H       1  UNL1        0.0232
     46 H         -16.5122   -2.6947  -26.0347 H       1  UNL1        0.0232
     47 H         -19.1003   -4.3723  -26.9440 H       1  UNL1        0.0290
     48 H         -19.9661   -2.9932  -27.5552 H       1  UNL1        0.0290
     49 H         -21.6692   -3.1771  -25.9986 H       1  UNL1        0.0595
     50 H         -21.4830   -3.8394  -24.0050 H       1  UNL1        0.1498
     51 H         -20.1508   -7.4576  -25.0429 H       1  UNL1        0.0815
     52 H         -18.0173   -8.6748  -25.5133 H       1  UNL1        0.1654
     53 H         -16.7130   -3.6557  -24.1143 H       1  UNL1        0.0624
     54 H         -14.4339   -4.0069  -24.8620 H       1  UNL1        0.0618
     55 H         -13.5661   -6.3242  -25.1490 H       1  UNL1        0.0618
     56 H         -15.1932   -8.1974  -25.3555 H       1  UNL1        0.0638
     57 H         -21.3094   -3.9001  -28.4262 H       1  UNL1        0.1495
     58 H         -22.2279   -6.6620  -28.9832 H       1  UNL1        0.0582
     59 H         -22.1419   -5.7840  -31.3433 H       1  UNL1        0.0295
     60 H         -21.5391   -4.2557  -30.7983 H       1  UNL1        0.0295
     61 H         -24.2396   -5.2439  -29.7859 H       1  UNL1        0.0395
     62 H         -25.3398   -4.8242  -31.7425 H       1  UNL1        0.0288
     63 H         -23.8466   -5.1260  -32.5806 H       1  UNL1        0.0288
     64 H         -25.1698   -2.6845  -32.6864 H       1  UNL1        0.0462
     65 H         -23.4106   -2.7962  -32.8560 H       1  UNL1        0.0462
     66 H         -24.1909   -1.3318  -30.8228 H       1  UNL1        0.1487
     67 H         -16.7435   -9.0652  -32.3655 H       1  UNL1        0.0639
     68 H         -17.1888  -10.9301  -33.9444 H       1  UNL1        0.0618
     69 H         -19.5115  -11.7456  -34.2974 H       1  UNL1        0.0618
     70 H         -21.4010  -10.6870  -33.0627 H       1  UNL1        0.0629
@<TRIPOS>BOND
     1     1     2    1
     2     1    40    1
     3     1    41    1
     4     1    42    1
     5     2     3    1
     6     2     4    1
     7     2    43    1
     8     3    44    1
     9     3    45    1
    10     3    46    1
    11     4     5    1
    12     4    47    1
    13     4    48    1
    14     5     6    1
    15     5    18    1
    16     5    49    1
    17     6     7   am
    18     6    50    1
    19     7     8    2
    20     7     9    1
    21     9    13   ar
    22     9    10   ar
    23    10    11   ar
    24    10    51    1
    25    11    12   ar
    26    11    52    1
    27    12    17   ar
    28    12    13   ar
    29    13    14   ar
    30    14    15   ar
    31    14    53    1
    32    15    16   ar
    33    15    54    1
    34    16    17   ar
    35    16    55    1
    36    17    56    1
    37    18    19    2
    38    18    20   am
    39    20    21    1
    40    20    57    1
    41    21    22    1
    42    21    29    1
    43    21    58    1
    44    22    23    1
    45    22    59    1
    46    22    60    1
    47    23    27    1
    48    23    24    1
    49    23    61    1
    50    24    25    1
    51    24    62    1
    52    24    63    1
    53    25    26    1
    54    25    64    1
    55    25    65    1
    56    26    27   am
    57    26    66    1
    58    27    28    2
    59    29    30    2
    60    29    31    1
    61    31    39   ar
    62    31    32   ar
    63    32    33   ar
    64    33    38   ar
    65    33    34   ar
    66    34    35   ar
    67    34    67    1
    68    35    36   ar
    69    35    68    1
    70    36    37   ar
    71    36    69    1
    72    37    38   ar
    73    37    70    1
    74    38    39   ar
