@<TRIPOS>MOLECULE
*****
 76 79 0 0 0
SMALL
GASTEIGER
****
Schrodinger Suite 2019-4.
@<TRIPOS>ATOM
      1 O         -18.9773   -5.7709  -29.5880 O.2     1  UNL1       -0.2708
      2 C         -19.8824   -6.0631  -30.3762 C.2     1  UNL1        0.2375
      3 N         -21.1104   -5.5209  -30.3292 N.am    1  UNL1       -0.3005
      4 C         -21.6033   -4.5760  -29.3198 C.3     1  UNL1        0.0999
      5 C         -23.0539   -4.1017  -29.6216 C.3     1  UNL1       -0.0231
      6 C         -23.1442   -2.9156  -30.5999 C.3     1  UNL1       -0.0389
      7 C         -22.8176   -1.5251  -30.0318 C.3     1  UNL1       -0.0501
      8 C         -23.9439   -0.9847  -30.9263 C.3     1  UNL1       -0.0526
      9 C         -24.5485   -2.3984  -30.9447 C.3     1  UNL1       -0.0501
     10 C         -21.5142   -5.1601  -27.8931 C.2     1  UNL1        0.2339
     11 O         -22.1876   -6.1441  -27.5851 O.2     1  UNL1       -0.2738
     12 N         -20.7336   -4.4833  -27.0371 N.am    1  UNL1       -0.3036
     13 C         -20.6978   -4.6620  -25.5784 C.3     1  UNL1        0.0914
     14 C         -19.2498   -4.4942  -25.0486 C.3     1  UNL1       -0.0159
     15 C         -18.2897   -5.5826  -25.6010 C.3     1  UNL1        0.0390
     16 C         -18.5141   -6.9827  -25.0446 C.3     1  UNL1       -0.0262
     17 C         -17.1273   -7.6020  -25.0394 C.3     1  UNL1        0.0123
     18 N         -16.2551   -6.4414  -24.9689 N.am    1  UNL1       -0.3151
     19 C         -16.8214   -5.2687  -25.2896 C.2     1  UNL1        0.2162
     20 O         -16.2729   -4.1720  -25.3684 O.2     1  UNL1       -0.2755
     21 C         -21.6772   -3.6195  -25.0204 C.2     1  UNL1        0.2372
     22 O         -22.2082   -2.7208  -25.6855 O.2     1  UNL1       -0.2852
     23 C         -22.0933   -3.7821  -23.5120 C.2     1  UNL1        0.2817
     24 O         -21.2768   -3.9821  -22.6141 O.2     1  UNL1       -0.2670
     25 N         -23.4271   -3.6832  -23.3679 N.am    1  UNL1       -0.3048
     26 C         -24.1650   -3.9843  -22.1431 C.3     1  UNL1        0.0372
     27 C         -24.3118   -5.4701  -21.7986 C.ar    1  UNL1       -0.0303
     28 C         -24.0661   -6.4809  -22.7395 C.ar    1  UNL1       -0.0571
     29 C         -24.1963   -7.8191  -22.3786 C.ar    1  UNL1       -0.0615
     30 C         -24.5730   -8.1508  -21.0783 C.ar    1  UNL1       -0.0617
     31 C         -24.8129   -7.1545  -20.1349 C.ar    1  UNL1       -0.0615
     32 C         -24.6791   -5.8165  -20.4978 C.ar    1  UNL1       -0.0571
     33 C         -19.7244   -7.0130  -31.4524 C.2     1  UNL1        0.0007
     34 C         -18.6081   -7.7569  -31.6025 C.2     1  UNL1       -0.0497
     35 C         -18.3507   -8.7530  -32.6636 C.ar    1  UNL1       -0.0249
     36 C         -19.3483   -9.1784  -33.5494 C.ar    1  UNL1       -0.0546
     37 C         -19.0553  -10.1126  -34.5416 C.ar    1  UNL1       -0.0612
     38 C         -17.7680  -10.6265  -34.6443 C.ar    1  UNL1       -0.0617
     39 C         -16.7687  -10.2158  -33.7663 C.ar    1  UNL1       -0.0612
     40 C         -17.0576   -9.2758  -32.7830 C.ar    1  UNL1       -0.0546
     41 H         -21.8071   -5.8531  -30.9795 H       1  UNL1        0.1498
     42 H         -20.9495   -3.7005  -29.3669 H       1  UNL1        0.0595
     43 H         -23.5545   -3.7951  -28.7000 H       1  UNL1        0.0290
     44 H         -23.6598   -4.9309  -29.9918 H       1  UNL1        0.0290
     45 H         -22.5633   -3.1497  -31.4955 H       1  UNL1        0.0301
     46 H         -21.8220   -1.1368  -30.2515 H       1  UNL1        0.0268
     47 H         -23.0548   -1.3993  -28.9719 H       1  UNL1        0.0268
     48 H         -23.5954   -0.6355  -31.8963 H       1  UNL1        0.0265
     49 H         -24.5728   -0.2087  -30.4926 H       1  UNL1        0.0265
     50 H         -25.2836   -2.5198  -30.1460 H       1  UNL1        0.0268
     51 H         -24.9558   -2.7150  -31.9052 H       1  UNL1        0.0268
     52 H         -20.2205   -3.6851  -27.3826 H       1  UNL1        0.1495
     53 H         -21.0579   -5.6596  -25.3112 H       1  UNL1        0.0583
     54 H         -19.2228   -4.5242  -23.9562 H       1  UNL1        0.0295
     55 H         -18.8909   -3.5005  -25.3275 H       1  UNL1        0.0295
     56 H         -18.3468   -5.5932  -26.6907 H       1  UNL1        0.0395
     57 H         -19.2342   -7.5694  -25.6165 H       1  UNL1        0.0288
     58 H         -18.8861   -6.9275  -24.0214 H       1  UNL1        0.0288
     59 H         -16.9213   -8.1687  -25.9515 H       1  UNL1        0.0462
     60 H         -16.9802   -8.2587  -24.1825 H       1  UNL1        0.0462
     61 H         -15.2495   -6.5422  -24.8527 H       1  UNL1        0.1487
     62 H         -23.9908   -3.5421  -24.2021 H       1  UNL1        0.1494
     63 H         -25.1689   -3.5680  -22.2452 H       1  UNL1        0.0512
     64 H         -23.7071   -3.4551  -21.3049 H       1  UNL1        0.0512
     65 H         -23.7878   -6.2419  -23.7535 H       1  UNL1        0.0621
     66 H         -24.0059   -8.5951  -23.1022 H       1  UNL1        0.0618
     67 H         -24.6685   -9.1884  -20.7979 H       1  UNL1        0.0618
     68 H         -25.0994   -7.4200  -19.1294 H       1  UNL1        0.0618
     69 H         -24.8693   -5.0434  -19.7679 H       1  UNL1        0.0621
     70 H         -20.5529   -7.1067  -32.1380 H       1  UNL1        0.0669
     71 H         -17.8051   -7.6354  -30.8847 H       1  UNL1        0.0625
     72 H         -20.3569   -8.8054  -33.4788 H       1  UNL1        0.0623
     73 H         -19.8244  -10.4384  -35.2250 H       1  UNL1        0.0618
     74 H         -17.5397  -11.3524  -35.4098 H       1  UNL1        0.0618
     75 H         -15.7751  -10.6274  -33.8520 H       1  UNL1        0.0618
     76 H         -16.2713   -8.9581  -32.1120 H       1  UNL1        0.0623
@<TRIPOS>BOND
     1     1     2    2
     2     2     3   am
     3     2    33    1
     4     3     4    1
     5     3    41    1
     6     4     5    1
     7     4    10    1
     8     4    42    1
     9     5     6    1
    10     5    43    1
    11     5    44    1
    12     6     9    1
    13     6     7    1
    14     6    45    1
    15     7     8    1
    16     7    46    1
    17     7    47    1
    18     8     9    1
    19     8    48    1
    20     8    49    1
    21     9    50    1
    22     9    51    1
    23    10    11    2
    24    10    12   am
    25    12    13    1
    26    12    52    1
    27    13    14    1
    28    13    21    1
    29    13    53    1
    30    14    15    1
    31    14    54    1
    32    14    55    1
    33    15    19    1
    34    15    16    1
    35    15    56    1
    36    16    17    1
    37    16    57    1
    38    16    58    1
    39    17    18    1
    40    17    59    1
    41    17    60    1
    42    18    19   am
    43    18    61    1
    44    19    20    2
    45    21    22    2
    46    21    23    1
    47    23    24    2
    48    23    25   am
    49    25    26    1
    50    25    62    1
    51    26    27    1
    52    26    63    1
    53    26    64    1
    54    27    32   ar
    55    27    28   ar
    56    28    29   ar
    57    28    65    1
    58    29    30   ar
    59    29    66    1
    60    30    31   ar
    61    30    67    1
    62    31    32   ar
    63    31    68    1
    64    32    69    1
    65    33    34    2
    66    33    70    1
    67    34    35    1
    68    34    71    1
    69    35    40   ar
    70    35    36   ar
    71    36    37   ar
    72    36    72    1
    73    37    38   ar
    74    37    73    1
    75    38    39   ar
    76    38    74    1
    77    39    40   ar
    78    39    75    1
    79    40    76    1
