
                    3D
 Schrodinger Suite 2019-4.
 76 79  0  0  1  0            999 V2000
  -18.9773   -5.7709  -29.5880 O   0  0  0  0  0  0
  -19.8824   -6.0631  -30.3762 C   0  0  0  0  0  0
  -21.1104   -5.5209  -30.3292 N   0  0  0  0  0  0
  -21.6033   -4.5760  -29.3198 C   0  0  1  0  0  0
  -23.0539   -4.1017  -29.6216 C   0  0  0  0  0  0
  -23.1442   -2.9156  -30.5999 C   0  0  0  0  0  0
  -22.8176   -1.5251  -30.0318 C   0  0  0  0  0  0
  -23.9439   -0.9847  -30.9263 C   0  0  0  0  0  0
  -24.5485   -2.3984  -30.9447 C   0  0  0  0  0  0
  -21.5142   -5.1601  -27.8931 C   0  0  0  0  0  0
  -22.1876   -6.1441  -27.5851 O   0  0  0  0  0  0
  -20.7336   -4.4833  -27.0371 N   0  0  0  0  0  0
  -20.6978   -4.6620  -25.5784 C   0  0  1  0  0  0
  -19.2498   -4.4942  -25.0486 C   0  0  0  0  0  0
  -18.2897   -5.5826  -25.6010 C   0  0  2  0  0  0
  -18.5141   -6.9827  -25.0446 C   0  0  0  0  0  0
  -17.1273   -7.6020  -25.0394 C   0  0  0  0  0  0
  -16.2551   -6.4414  -24.9689 N   0  0  0  0  0  0
  -16.8214   -5.2687  -25.2896 C   0  0  0  0  0  0
  -16.2729   -4.1720  -25.3684 O   0  0  0  0  0  0
  -21.6772   -3.6195  -25.0204 C   0  0  0  0  0  0
  -22.2082   -2.7208  -25.6855 O   0  0  0  0  0  0
  -22.0933   -3.7821  -23.5120 C   0  0  0  0  0  0
  -21.2768   -3.9821  -22.6141 O   0  0  0  0  0  0
  -23.4271   -3.6832  -23.3679 N   0  0  0  0  0  0
  -24.1650   -3.9843  -22.1431 C   0  0  0  0  0  0
  -24.3118   -5.4701  -21.7986 C   0  0  0  0  0  0
  -24.0661   -6.4809  -22.7395 C   0  0  0  0  0  0
  -24.1963   -7.8191  -22.3786 C   0  0  0  0  0  0
  -24.5730   -8.1508  -21.0783 C   0  0  0  0  0  0
  -24.8129   -7.1545  -20.1349 C   0  0  0  0  0  0
  -24.6791   -5.8165  -20.4978 C   0  0  0  0  0  0
  -19.7244   -7.0130  -31.4524 C   0  0  0  0  0  0
  -18.6081   -7.7569  -31.6025 C   0  0  0  0  0  0
  -18.3507   -8.7530  -32.6636 C   0  0  0  0  0  0
  -19.3483   -9.1784  -33.5494 C   0  0  0  0  0  0
  -19.0553  -10.1126  -34.5416 C   0  0  0  0  0  0
  -17.7680  -10.6265  -34.6443 C   0  0  0  0  0  0
  -16.7687  -10.2158  -33.7663 C   0  0  0  0  0  0
  -17.0576   -9.2758  -32.7830 C   0  0  0  0  0  0
  -21.8071   -5.8531  -30.9795 H   0  0  0  0  0  0
  -20.9495   -3.7005  -29.3669 H   0  0  0  0  0  0
  -23.5545   -3.7951  -28.7000 H   0  0  0  0  0  0
  -23.6598   -4.9309  -29.9918 H   0  0  0  0  0  0
  -22.5633   -3.1497  -31.4955 H   0  0  0  0  0  0
  -21.8220   -1.1368  -30.2515 H   0  0  0  0  0  0
  -23.0548   -1.3993  -28.9719 H   0  0  0  0  0  0
  -23.5954   -0.6355  -31.8963 H   0  0  0  0  0  0
  -24.5728   -0.2087  -30.4926 H   0  0  0  0  0  0
  -25.2836   -2.5198  -30.1460 H   0  0  0  0  0  0
  -24.9558   -2.7150  -31.9052 H   0  0  0  0  0  0
  -20.2205   -3.6851  -27.3826 H   0  0  0  0  0  0
  -21.0579   -5.6596  -25.3112 H   0  0  0  0  0  0
  -19.2228   -4.5242  -23.9562 H   0  0  0  0  0  0
  -18.8909   -3.5005  -25.3275 H   0  0  0  0  0  0
  -18.3468   -5.5932  -26.6907 H   0  0  0  0  0  0
  -19.2342   -7.5694  -25.6165 H   0  0  0  0  0  0
  -18.8861   -6.9275  -24.0214 H   0  0  0  0  0  0
  -16.9213   -8.1687  -25.9515 H   0  0  0  0  0  0
  -16.9802   -8.2587  -24.1825 H   0  0  0  0  0  0
  -15.2495   -6.5422  -24.8527 H   0  0  0  0  0  0
  -23.9908   -3.5421  -24.2021 H   0  0  0  0  0  0
  -25.1689   -3.5680  -22.2452 H   0  0  0  0  0  0
  -23.7071   -3.4551  -21.3049 H   0  0  0  0  0  0
  -23.7878   -6.2419  -23.7535 H   0  0  0  0  0  0
  -24.0059   -8.5951  -23.1022 H   0  0  0  0  0  0
  -24.6685   -9.1884  -20.7979 H   0  0  0  0  0  0
  -25.0994   -7.4200  -19.1294 H   0  0  0  0  0  0
  -24.8693   -5.0434  -19.7679 H   0  0  0  0  0  0
  -20.5529   -7.1067  -32.1380 H   0  0  0  0  0  0
  -17.8051   -7.6354  -30.8847 H   0  0  0  0  0  0
  -20.3569   -8.8054  -33.4788 H   0  0  0  0  0  0
  -19.8244  -10.4384  -35.2250 H   0  0  0  0  0  0
  -17.5397  -11.3524  -35.4098 H   0  0  0  0  0  0
  -15.7751  -10.6274  -33.8520 H   0  0  0  0  0  0
  -16.2713   -8.9581  -32.1120 H   0  0  0  0  0  0
  1  2  2  0  0  0
  2  3  1  0  0  0
  2 33  1  0  0  0
  3  4  1  0  0  0
  3 41  1  0  0  0
  4  5  1  0  0  0
  4 10  1  0  0  0
  4 42  1  0  0  0
  5  6  1  0  0  0
  5 43  1  0  0  0
  5 44  1  0  0  0
  6  9  1  0  0  0
  6  7  1  0  0  0
  6 45  1  0  0  0
  7  8  1  0  0  0
  7 46  1  0  0  0
  7 47  1  0  0  0
  8  9  1  0  0  0
  8 48  1  0  0  0
  8 49  1  0  0  0
  9 50  1  0  0  0
  9 51  1  0  0  0
 10 11  2  0  0  0
 10 12  1  0  0  0
 12 13  1  0  0  0
 12 52  1  0  0  0
 13 14  1  0  0  0
 13 21  1  0  0  0
 13 53  1  0  0  0
 14 15  1  0  0  0
 14 54  1  0  0  0
 14 55  1  0  0  0
 15 19  1  0  0  0
 15 16  1  0  0  0
 15 56  1  0  0  0
 16 17  1  0  0  0
 16 57  1  0  0  0
 16 58  1  0  0  0
 17 18  1  0  0  0
 17 59  1  0  0  0
 17 60  1  0  0  0
 18 19  1  0  0  0
 18 61  1  0  0  0
 19 20  2  0  0  0
 21 22  2  0  0  0
 21 23  1  0  0  0
 23 24  2  0  0  0
 23 25  1  0  0  0
 25 26  1  0  0  0
 25 62  1  0  0  0
 26 27  1  0  0  0
 26 63  1  0  0  0
 26 64  1  0  0  0
 27 32  1  0  0  0
 27 28  2  0  0  0
 28 29  1  0  0  0
 28 65  1  0  0  0
 29 30  2  0  0  0
 29 66  1  0  0  0
 30 31  1  0  0  0
 30 67  1  0  0  0
 31 32  2  0  0  0
 31 68  1  0  0  0
 32 69  1  0  0  0
 33 34  2  0  0  0
 33 70  1  0  0  0
 34 35  1  0  0  0
 34 71  1  0  0  0
 35 40  1  0  0  0
 35 36  2  0  0  0
 36 37  1  0  0  0
 36 72  1  0  0  0
 37 38  2  0  0  0
 37 73  1  0  0  0
 38 39  1  0  0  0
 38 74  1  0  0  0
 39 40  2  0  0  0
 39 75  1  0  0  0
 40 76  1  0  0  0
M  END
$$$$
