@<TRIPOS>MOLECULE
/home/lixiaoshuang.lxs/med/data/m_pro/PDB_BA/3sna/3sna_ligand.pdb
 45 43 0 0 0
SMALL
GASTEIGER

@<TRIPOS>ATOM
      1  C         21.4660   10.7070   22.9990 C.2     0  ACE0        0.2423
      2  O         20.5050   11.0540   23.6850 O.2     0  ACE0       -0.2733
      3  CH3       22.5050   11.7020   22.5310 C.3     0  ACE0        0.0964
      4  N         21.6380    9.4180   22.6660 N.am    1  ASN1       -0.1972
      5  CA        21.3180    8.9060   21.3260 C.3     1  ASN1        0.1819
      6  C         20.8280    7.4470   21.2800 C.2     1  ASN1        0.2622
      7  O         21.4600    6.5640   21.8750 O.2     1  ASN1       -0.2715
      8  CB        22.5170    9.0820   20.3940 C.3     1  ASN1        0.1195
      9  CG        22.1210    9.6580   19.0710 C.2     1  ASN1        0.2630
     10  OD1       21.8720   10.8610   18.9480 O.2     1  ASN1       -0.2716
     11  ND2       22.0360    8.8030   18.0700 N.am    1  ASN1       -0.0877
     12  N         19.7170    7.2230   20.5570 N.am    2  SER2       -0.1936
     13  CA        19.0130    5.9210   20.4270 C.3     2  SER2        0.2055
     14  C         18.8320    5.1250   21.7540 C.2     2  SER2        0.2643
     15  O         19.1890    5.6330   22.8270 O.2     2  SER2       -0.2714
     16  CB        19.6410    5.0720   19.3160 C.3     2  SER2        0.2130
     17  OG        18.8400    3.9320   19.0820 O.3     2  SER2       -0.2179
     18  N         18.2500    3.9130   21.6720 N.am    3  PHE3       -0.1959
     19  CA        18.0230    2.9710   22.8290 C.3     3  PHE3        0.1771
     20  C         17.5400    1.5720   22.3520 C.2     3  PHE3        0.2620
     21  O         16.3250    1.3020   22.3120 O.2     3  PHE3       -0.2715
     22  CB        16.9940    3.5110   23.8590 C.3     3  PHE3        0.0574
     23  CG        17.5890    4.2890   25.0040 C.ar    3  PHE3       -0.0200
     24  CD1       17.4510    5.6820   25.0610 C.ar    3  PHE3       -0.0042
     25  CD2       18.2450    3.6350   26.0440 C.ar    3  PHE3       -0.0042
     26  CE1       17.9940    6.4200   26.1190 C.ar    3  PHE3       -0.0003
     27  CE2       18.7910    4.3630   27.1210 C.ar    3  PHE3       -0.0003
     28  CZ        18.6650    5.7590   27.1570 C.ar    3  PHE3       -0.0000
     29  N         18.4770    0.6870   21.9990 N.am    4  SER4       -0.1936
     30  CA        18.1160   -0.6510   21.5020 C.3     4  SER4        0.2055
     31  C         17.6120   -1.5890   22.6120 C.2     4  SER4        0.2640
     32  O         18.3930   -2.0740   23.4370 O.2     4  SER4       -0.2714
     33  CB        19.2730   -1.2860   20.7110 C.3     4  SER4        0.2130
     34  OG        19.2330   -0.9460   19.3270 O.3     4  SER4       -0.2179
     35  C         14.9440   -3.5150   23.9570 C.3     5  ECC5        0.2054
     36  C         14.8920   -3.5040   24.0040 C.3     5  ECC5        0.2175
     37  N         16.4530   -1.8300   23.0760 N.am    5  ECC5       -0.2011
     38  O         14.3440   -3.9630   25.1760 O.3     5  ECC5       -0.2175
     39  O         15.9590   -4.4620   24.0220 O.3     5  ECC5       -0.2184
     40  CA        15.4150   -2.0680   24.0760 C.3     5  ECC5        0.1506
     41  CB        14.2570   -1.0920   23.8480 C.3     5  ECC5        0.0102
     42  CD        12.7910    0.6050   24.9490 C.2     5  ECC5        0.2607
     43  CG        14.1680   -0.0160   24.9280 C.3     5  ECC5        0.0885
     44  OE1       12.1970    0.8160   23.9130 O.2     5  ECC5       -0.2717
     45  NE2       12.2730    0.9110   26.1300 N.am    5  ECC5       -0.0878
@<TRIPOS>BOND
     1    11     9   am
     2    10     9    2
     3     9     8    1
     4    17    16    1
     5    16    13    1
     6    34    33    1
     7     8     5    1
     8    13    12    1
     9    13    14    1
    10    12     6   am
    11    33    30    1
    12     6     5    1
    13     6     7    2
    14     5     4    1
    15    30    29    1
    16    30    31    1
    17    18    14   am
    18    18    19    1
    19    14    15    2
    20    29    20   am
    21    21    20    2
    22    20    19    1
    23     3     1    1
    24    31    37   am
    25    31    32    2
    26     4     1   am
    27    19    22    1
    28     1     2    2
    29    37    40    1
    30    41    43    1
    31    22    23    1
    32    44    42    2
    33    35    39    1
    34    35    40    1
    35    36    38    1
    36    43    42    1
    37    42    45   am
    38    23    24   ar
    39    23    25   ar
    40    24    26   ar
    41    25    27   ar
    42    26    28   ar
    43    27    28   ar
