@<TRIPOS>MOLECULE
*****
 59 62 0 0 0
SMALL
GASTEIGER
****
Schrodinger Suite 2019-4.
@<TRIPOS>ATOM
      1 O         -21.3836   -3.5724  -22.5455 O.co2   1  HIS1       -0.8752
      2 C         -21.9090   -3.7259  -23.6671 C.2     1  HIS1       -0.0846
      3 CA        -21.7561   -4.6543  -24.6906 C.2     1  HIS1        0.1103
      4 CB        -20.7732   -5.8111  -24.6652 C.3     1  HIS1        0.0689
      5 CG        -19.3299   -5.4058  -24.7712 C.ar    1  HIS1        0.0686
      6 CD2       -18.8132   -4.1294  -24.8002 C.ar    1  HIS1        0.0248
      7 NE2       -17.4436   -4.2791  -24.8959 N.ar    1  HIS1       -0.3506
      8 CE1       -17.1914   -5.5883  -24.9297 C.ar    1  HIS1        0.0936
      9 ND1       -18.2868   -6.3352  -24.8610 N.ar    1  HIS1       -0.2404
     10 C         -21.7782   -4.3324  -27.2248 C.3     0  UNK0        0.1079
     11 C         -22.1199   -5.2252  -28.4307 C.3     0  UNK0        0.0799
     12 C         -21.7142   -4.7257  -29.8334 C.3     0  UNK0       -0.0254
     13 C         -22.5645   -3.5532  -30.3255 C.3     0  UNK0       -0.0349
     14 C         -22.3209   -3.2301  -31.8135 C.3     0  UNK0       -0.0498
     15 C         -23.1345   -2.0067  -32.2640 C.3     0  UNK0       -0.0528
     16 C         -24.6285   -2.1530  -31.9299 C.3     0  UNK0       -0.0527
     17 C         -24.7985   -2.5148  -30.4500 C.3     0  UNK0       -0.0485
     18 C         -24.0666   -3.8204  -30.1264 C.3     0  UNK0       -0.0223
     19 C         -24.4124   -4.3503  -28.7266 C.3     0  UNK0        0.0186
     20 N         -23.5684   -5.5030  -28.3640 N.am    0  UNK0       -0.2884
     21 C         -24.0078   -6.6829  -27.8486 C.2     0  UNK0        0.2471
     22 O         -23.2794   -7.6705  -27.7555 O.2     0  UNK0       -0.2700
     23 C         -25.4070   -6.8071  -27.3113 C.ar    0  UNK0        0.0371
     24 C         -25.9232   -5.7820  -26.4899 C.ar    0  UNK0       -0.0469
     25 C         -27.2637   -5.8175  -26.0676 C.ar    0  UNK0       -0.0257
     26 C         -28.0974   -6.8877  -26.4395 C.ar    0  UNK0        0.1234
     27 F         -29.3807   -6.9316  -26.0106 F       0  UNK0       -0.2055
     28 C         -27.5986   -7.9046  -27.2716 C.ar    0  UNK0       -0.0257
     29 C         -26.2681   -7.8485  -27.7268 C.ar    0  UNK0       -0.0469
     30 N         -22.4974   -4.6928  -25.9913 N.pl3   1  HIS1       -0.4022
     31 H         -22.6682   -2.9940  -23.9872 H       1  HIS1        0.0504
     32 HB1       -21.0228   -6.4925  -25.4782 H       1  HIS1        0.0434
     33 HB2       -20.9353   -6.3802  -23.7485 H       1  HIS1        0.0434
     34 HD2       -19.2777   -3.1574  -24.7658 H       1  HIS1        0.0825
     35 HE2       -16.7604   -3.5314  -24.9514 H       1  HIS1        0.1662
     36 HE1       -16.1962   -6.0002  -25.0088 H       1  HIS1        0.1027
     37 H         -22.0879   -3.3326  -27.5269 H       0  UNK0        0.0987
     38 H         -20.7110   -4.3053  -27.0075 H       0  UNK0        0.0987
     39 H         -21.5396   -6.1390  -28.2909 H       0  UNK0        0.0561
     40 H         -21.8175   -5.5561  -30.5338 H       0  UNK0        0.0288
     41 H         -20.6590   -4.4537  -29.8483 H       0  UNK0        0.0288
     42 H         -22.2787   -2.6827  -29.7321 H       0  UNK0        0.0305
     43 H         -22.5956   -4.0890  -32.4291 H       0  UNK0        0.0268
     44 H         -21.2628   -3.0592  -31.9993 H       0  UNK0        0.0268
     45 H         -22.9969   -1.8758  -33.3341 H       0  UNK0        0.0265
     46 H         -22.7393   -1.1108  -31.7829 H       0  UNK0        0.0265
     47 H         -25.0741   -2.9259  -32.5574 H       0  UNK0        0.0265
     48 H         -25.1560   -1.2247  -32.1518 H       0  UNK0        0.0265
     49 H         -25.8380   -2.5631  -30.1606 H       0  UNK0        0.0269
     50 H         -24.3709   -1.7173  -29.8504 H       0  UNK0        0.0269
     51 H         -24.3852   -4.5879  -30.8345 H       0  UNK0        0.0319
     52 H         -25.4654   -4.6172  -28.7370 H       0  UNK0        0.0467
     53 H         -24.3152   -3.5588  -27.9838 H       0  UNK0        0.0467
     54 H         -25.3008   -4.9492  -26.1962 H       0  UNK0        0.0626
     55 H         -27.6534   -5.0154  -25.4627 H       0  UNK0        0.0646
     56 H         -28.2447   -8.7139  -27.5789 H       0  UNK0        0.0646
     57 H         -25.9143   -8.6080  -28.4042 H       0  UNK0        0.0626
     58 H1        -23.2783   -4.0568  -25.9094 H       1  HIS1        0.3725
     59 H2        -22.8754   -5.6201  -26.1242 H       1  HIS1        0.3725
@<TRIPOS>BOND
     1     1     2    1
     2     2     3    2
     3     2    31    1
     4     3     4    1
     5     3    30    1
     6     4     5    1
     7     4    32    1
     8     4    33    1
     9     5     9   ar
    10     5     6   ar
    11     6     7   ar
    12     6    34    1
    13     7     8   ar
    14     7    35    1
    15     8     9   ar
    16     8    36    1
    17    10    11    1
    18    10    30    1
    19    10    37    1
    20    10    38    1
    21    11    20    1
    22    11    12    1
    23    11    39    1
    24    12    13    1
    25    12    40    1
    26    12    41    1
    27    13    18    1
    28    13    14    1
    29    13    42    1
    30    14    15    1
    31    14    43    1
    32    14    44    1
    33    15    16    1
    34    15    45    1
    35    15    46    1
    36    16    17    1
    37    16    47    1
    38    16    48    1
    39    17    18    1
    40    17    49    1
    41    17    50    1
    42    18    19    1
    43    18    51    1
    44    19    20    1
    45    19    52    1
    46    19    53    1
    47    20    21   am
    48    21    22    2
    49    21    23    1
    50    23    29   ar
    51    23    24   ar
    52    24    25   ar
    53    24    54    1
    54    25    26   ar
    55    25    55    1
    56    26    27    1
    57    26    28   ar
    58    28    29   ar
    59    28    56    1
    60    29    57    1
    61    30    58    1
    62    30    59    1
