
                    3D
 Schrodinger Suite 2019-4.
102106  0  0  1  0            999 V2000
  -23.6087   -3.5804  -31.7578 C   0  0  0  0  0  0
  -23.5419   -2.8881  -30.3817 C   0  0  0  0  0  0
  -22.6502   -1.6373  -30.3923 C   0  0  0  0  0  0
  -23.2354   -3.8452  -29.1986 C   0  0  0  0  0  0
  -21.7700   -4.3649  -29.0586 C   0  0  2  0  0  0
  -21.4020   -5.1373  -30.2540 N   0  0  0  0  0  0
  -20.1552   -5.5334  -30.5625 C   0  0  0  0  0  0
  -19.1571   -5.2111  -29.9163 O   0  0  0  0  0  0
  -20.0674   -6.4850  -31.6420 C   0  0  0  0  0  0
  -21.0405   -7.3165  -32.1883 C   0  0  0  0  0  0
  -20.3894   -8.2496  -33.0639 C   0  0  0  0  0  0
  -20.8229   -9.3284  -33.8514 C   0  0  0  0  0  0
  -19.8787  -10.0525  -34.5805 C   0  0  0  0  0  0
  -18.5290   -9.7190  -34.5383 C   0  0  0  0  0  0
  -18.0547   -8.6557  -33.7694 C   0  0  0  0  0  0
  -19.0049   -7.9297  -33.0444 C   0  0  0  0  0  0
  -18.8681   -6.8511  -32.2019 N   0  0  0  0  0  0
  -21.6282   -5.2617  -27.7979 C   0  0  0  0  0  0
  -22.0681   -6.4104  -27.8388 O   0  0  0  0  0  0
  -21.0550   -4.7267  -26.7051 N   0  0  0  0  0  0
  -20.8257   -5.4104  -25.4129 C   0  0  1  0  0  0
  -22.1241   -5.7193  -24.6178 C   0  0  0  0  0  0
  -22.9870   -4.5127  -24.2662 C   0  0  0  0  0  0
  -22.8856   -3.9302  -22.9992 C   0  0  0  0  0  0
  -23.7336   -2.8859  -22.6448 C   0  0  0  0  0  0
  -24.6666   -2.4139  -23.5633 C   0  0  0  0  0  0
  -24.7549   -2.9662  -24.8389 C   0  0  0  0  0  0
  -23.9179   -4.0230  -25.1864 C   0  0  0  0  0  0
  -19.8216   -6.6203  -25.4863 C   0  0  2  0  0  0
  -20.4687   -7.8665  -25.5871 O   0  0  0  0  0  0
  -18.8727   -6.7784  -24.2709 C   0  0  0  0  0  0
  -17.4238   -7.2249  -24.6012 C   0  0  2  0  0  0
  -16.6588   -6.2395  -25.5225 C   0  0  0  0  0  0
  -17.0243   -4.7777  -25.2786 C   0  0  0  0  0  0
  -17.6293   -4.0303  -26.2878 C   0  0  0  0  0  0
  -18.0679   -2.7381  -26.0203 C   0  0  0  0  0  0
  -17.8812   -2.1897  -24.7576 C   0  0  0  0  0  0
  -17.2684   -2.9216  -23.7548 C   0  0  0  0  0  0
  -16.8517   -4.2208  -24.0088 C   0  0  0  0  0  0
  -17.4217   -8.5933  -25.1363 N   0  0  0  0  0  0
  -16.5739   -9.5885  -24.8124 C   0  0  0  0  0  0
  -15.6710   -9.4437  -23.9872 O   0  0  0  0  0  0
  -16.8274  -11.0078  -25.3908 C   0  0  0  0  0  0
  -17.0099  -11.1081  -26.8198 O   0  0  0  0  0  0
  -17.9287  -10.3076  -27.4642 C   0  0  0  0  0  0
  -19.3167  -10.4462  -27.2674 C   0  0  0  0  0  0
  -19.8977  -11.5406  -26.3827 C   0  0  0  0  0  0
  -20.1924   -9.5968  -27.9457 C   0  0  0  0  0  0
  -19.7038   -8.5552  -28.7285 C   0  0  0  0  0  0
  -18.3338   -8.4153  -28.9360 C   0  0  0  0  0  0
  -17.4587   -9.3620  -28.3867 C   0  0  0  0  0  0
  -16.0268   -9.4222  -28.8868 C   0  0  0  0  0  0
  -23.7672   -4.6558  -31.6699 H   0  0  0  0  0  0
  -24.4344   -3.1830  -32.3503 H   0  0  0  0  0  0
  -22.6932   -3.4234  -32.3349 H   0  0  0  0  0  0
  -24.5528   -2.5292  -30.1868 H   0  0  0  0  0  0
  -22.4687   -1.2824  -29.3786 H   0  0  0  0  0  0
  -21.6845   -1.8232  -30.8657 H   0  0  0  0  0  0
  -23.1337   -0.8200  -30.9291 H   0  0  0  0  0  0
  -23.9309   -4.6866  -29.2334 H   0  0  0  0  0  0
  -23.4881   -3.3074  -28.2839 H   0  0  0  0  0  0
  -21.0896   -3.5147  -28.9652 H   0  0  0  0  0  0
  -22.1636   -5.4141  -30.8502 H   0  0  0  0  0  0
  -22.0905   -7.2978  -31.9430 H   0  0  0  0  0  0
  -21.8614   -9.6101  -33.8809 H   0  0  0  0  0  0
  -20.1986  -10.8885  -35.1874 H   0  0  0  0  0  0
  -17.8269  -10.3034  -35.1154 H   0  0  0  0  0  0
  -17.0043   -8.4116  -33.7393 H   0  0  0  0  0  0
  -17.9892   -6.4033  -31.9460 H   0  0  0  0  0  0
  -20.7496   -3.7638  -26.7548 H   0  0  0  0  0  0
  -20.3088   -4.6207  -24.8639 H   0  0  0  0  0  0
  -21.8796   -6.2551  -23.7006 H   0  0  0  0  0  0
  -22.7448   -6.4132  -25.1841 H   0  0  0  0  0  0
  -22.1718   -4.3028  -22.2847 H   0  0  0  0  0  0
  -23.6783   -2.4487  -21.6584 H   0  0  0  0  0  0
  -25.3426   -1.6226  -23.2756 H   0  0  0  0  0  0
  -25.4774   -2.5810  -25.5465 H   0  0  0  0  0  0
  -24.0052   -4.4726  -26.1647 H   0  0  0  0  0  0
  -19.2213   -6.4945  -26.3863 H   0  0  0  0  0  0
  -20.4813   -8.2759  -24.7048 H   0  0  0  0  0  0
  -19.2678   -7.5004  -23.5658 H   0  0  0  0  0  0
  -18.8467   -5.8610  -23.6868 H   0  0  0  0  0  0
  -16.8997   -7.2244  -23.6426 H   0  0  0  0  0  0
  -16.8626   -6.4897  -26.5657 H   0  0  0  0  0  0
  -15.5829   -6.3802  -25.4106 H   0  0  0  0  0  0
  -17.8005   -4.4592  -27.2649 H   0  0  0  0  0  0
  -18.5489   -2.1542  -26.7869 H   0  0  0  0  0  0
  -18.2011   -1.1795  -24.5525 H   0  0  0  0  0  0
  -17.1106   -2.4737  -22.7869 H   0  0  0  0  0  0
  -16.4014   -4.7987  -23.2164 H   0  0  0  0  0  0
  -18.1495   -8.7957  -25.8101 H   0  0  0  0  0  0
  -17.6504  -11.4768  -24.8516 H   0  0  0  0  0  0
  -15.9540  -11.6207  -25.1614 H   0  0  0  0  0  0
  -20.8778  -11.8549  -26.7436 H   0  0  0  0  0  0
  -19.2711  -12.4319  -26.3975 H   0  0  0  0  0  0
  -19.9998  -11.1912  -25.3538 H   0  0  0  0  0  0
  -21.2599   -9.7096  -27.8325 H   0  0  0  0  0  0
  -20.4016   -7.8899  -29.2072 H   0  0  0  0  0  0
  -17.9662   -7.6553  -29.6100 H   0  0  0  0  0  0
  -15.6677   -8.4108  -28.9782 H   0  0  0  0  0  0
  -15.3035   -9.9845  -28.2722 H   0  0  0  0  0  0
  -16.0096   -9.8383  -29.8934 H   0  0  0  0  0  0
  1  2  1  0  0  0
  1 53  1  0  0  0
  1 54  1  0  0  0
  1 55  1  0  0  0
  2  3  1  0  0  0
  2  4  1  0  0  0
  2 56  1  0  0  0
  3 57  1  0  0  0
  3 58  1  0  0  0
  3 59  1  0  0  0
  4  5  1  0  0  0
  4 60  1  0  0  0
  4 61  1  0  0  0
  5  6  1  0  0  0
  5 18  1  0  0  0
  5 62  1  0  0  0
  6  7  1  0  0  0
  6 63  1  0  0  0
  7  8  2  0  0  0
  7  9  1  0  0  0
  9 17  1  0  0  0
  9 10  2  0  0  0
 10 11  1  0  0  0
 10 64  1  0  0  0
 11 16  1  0  0  0
 11 12  2  0  0  0
 12 13  1  0  0  0
 12 65  1  0  0  0
 13 14  2  0  0  0
 13 66  1  0  0  0
 14 15  1  0  0  0
 14 67  1  0  0  0
 15 16  2  0  0  0
 15 68  1  0  0  0
 16 17  1  0  0  0
 17 69  1  0  0  0
 18 19  2  0  0  0
 18 20  1  0  0  0
 20 21  1  0  0  0
 20 70  1  0  0  0
 21 22  1  0  0  0
 21 29  1  0  0  0
 21 71  1  0  0  0
 22 23  1  0  0  0
 22 72  1  0  0  0
 22 73  1  0  0  0
 23 28  1  0  0  0
 23 24  2  0  0  0
 24 25  1  0  0  0
 24 74  1  0  0  0
 25 26  2  0  0  0
 25 75  1  0  0  0
 26 27  1  0  0  0
 26 76  1  0  0  0
 27 28  2  0  0  0
 27 77  1  0  0  0
 28 78  1  0  0  0
 29 30  1  0  0  0
 29 31  1  0  0  0
 29 79  1  0  0  0
 30 80  1  0  0  0
 31 32  1  0  0  0
 31 81  1  0  0  0
 31 82  1  0  0  0
 32 33  1  0  0  0
 32 40  1  0  0  0
 32 83  1  0  0  0
 33 34  1  0  0  0
 33 84  1  0  0  0
 33 85  1  0  0  0
 34 39  1  0  0  0
 34 35  2  0  0  0
 35 36  1  0  0  0
 35 86  1  0  0  0
 36 37  2  0  0  0
 36 87  1  0  0  0
 37 38  1  0  0  0
 37 88  1  0  0  0
 38 39  2  0  0  0
 38 89  1  0  0  0
 39 90  1  0  0  0
 40 41  1  0  0  0
 40 91  1  0  0  0
 41 42  2  0  0  0
 41 43  1  0  0  0
 43 44  1  0  0  0
 43 92  1  0  0  0
 43 93  1  0  0  0
 44 45  1  0  0  0
 45 51  1  0  0  0
 45 46  2  0  0  0
 46 47  1  0  0  0
 46 48  1  0  0  0
 47 94  1  0  0  0
 47 95  1  0  0  0
 47 96  1  0  0  0
 48 49  2  0  0  0
 48 97  1  0  0  0
 49 50  1  0  0  0
 49 98  1  0  0  0
 50 51  2  0  0  0
 50 99  1  0  0  0
 51 52  1  0  0  0
 52100  1  0  0  0
 52101  1  0  0  0
 52102  1  0  0  0
M  END
$$$$
