@<TRIPOS>MOLECULE
*****
 102 106 0 0 0
SMALL
GASTEIGER
****
Schrodinger Suite 2019-4.
@<TRIPOS>ATOM
      1 C         -23.6087   -3.5804  -31.7578 C.3     1  UNL1       -0.0626
      2 C         -23.5419   -2.8881  -30.3817 C.3     1  UNL1       -0.0446
      3 C         -22.6502   -1.6373  -30.3923 C.3     1  UNL1       -0.0626
      4 C         -23.2354   -3.8452  -29.1986 C.3     1  UNL1       -0.0236
      5 C         -21.7700   -4.3649  -29.0586 C.3     1  UNL1        0.0999
      6 N         -21.4020   -5.1373  -30.2540 N.am    1  UNL1       -0.2988
      7 C         -20.1552   -5.5334  -30.5625 C.2     1  UNL1        0.2610
      8 O         -19.1571   -5.2111  -29.9163 O.2     1  UNL1       -0.2686
      9 C         -20.0674   -6.4850  -31.6420 C.ar    1  UNL1        0.1028
     10 C         -21.0405   -7.3165  -32.1883 C.ar    1  UNL1       -0.0242
     11 C         -20.3894   -8.2496  -33.0639 C.ar    1  UNL1        0.0004
     12 C         -20.8229   -9.3284  -33.8514 C.ar    1  UNL1       -0.0526
     13 C         -19.8787  -10.0525  -34.5805 C.ar    1  UNL1       -0.0611
     14 C         -18.5290   -9.7190  -34.5383 C.ar    1  UNL1       -0.0598
     15 C         -18.0547   -8.6557  -33.7694 C.ar    1  UNL1       -0.0378
     16 C         -19.0049   -7.9297  -33.0444 C.ar    1  UNL1        0.0470
     17 N         -18.8681   -6.8511  -32.2019 N.ar    1  UNL1       -0.3506
     18 C         -21.6282   -5.2617  -27.7979 C.2     1  UNL1        0.2337
     19 O         -22.0681   -6.4104  -27.8388 O.2     1  UNL1       -0.2738
     20 N         -21.0550   -4.7267  -26.7051 N.am    1  UNL1       -0.3082
     21 C         -20.8257   -5.4104  -25.4129 C.3     1  UNL1        0.0531
     22 C         -22.1241   -5.7193  -24.6178 C.3     1  UNL1       -0.0068
     23 C         -22.9870   -4.5127  -24.2662 C.ar    1  UNL1       -0.0455
     24 C         -22.8856   -3.9302  -22.9992 C.ar    1  UNL1       -0.0585
     25 C         -23.7336   -2.8859  -22.6448 C.ar    1  UNL1       -0.0615
     26 C         -24.6666   -2.4139  -23.5633 C.ar    1  UNL1       -0.0617
     27 C         -24.7549   -2.9662  -24.8389 C.ar    1  UNL1       -0.0615
     28 C         -23.9179   -4.0230  -25.1864 C.ar    1  UNL1       -0.0585
     29 C         -19.8216   -6.6203  -25.4863 C.3     1  UNL1        0.0755
     30 O         -20.4687   -7.8665  -25.5871 O.3     1  UNL1       -0.3899
     31 C         -18.8727   -6.7784  -24.2709 C.3     1  UNL1       -0.0063
     32 C         -17.4238   -7.2249  -24.6012 C.3     1  UNL1        0.0296
     33 C         -16.6588   -6.2395  -25.5225 C.3     1  UNL1       -0.0091
     34 C         -17.0243   -4.7777  -25.2786 C.ar    1  UNL1       -0.0456
     35 C         -17.6293   -4.0303  -26.2878 C.ar    1  UNL1       -0.0585
     36 C         -18.0679   -2.7381  -26.0203 C.ar    1  UNL1       -0.0615
     37 C         -17.8812   -2.1897  -24.7576 C.ar    1  UNL1       -0.0617
     38 C         -17.2684   -2.9216  -23.7548 C.ar    1  UNL1       -0.0615
     39 C         -16.8517   -4.2208  -24.0088 C.ar    1  UNL1       -0.0585
     40 N         -17.4217   -8.5933  -25.1363 N.am    1  UNL1       -0.3093
     41 C         -16.5739   -9.5885  -24.8124 C.2     1  UNL1        0.2509
     42 O         -15.6710   -9.4437  -23.9872 O.2     1  UNL1       -0.2721
     43 C         -16.8274  -11.0078  -25.3908 C.3     1  UNL1        0.1652
     44 O         -17.0099  -11.1081  -26.8198 O.3     1  UNL1       -0.4822
     45 C         -17.9287  -10.3076  -27.4642 C.ar    1  UNL1        0.1270
     46 C         -19.3167  -10.4462  -27.2674 C.ar    1  UNL1       -0.0085
     47 C         -19.8977  -11.5406  -26.3827 C.3     1  UNL1       -0.0362
     48 C         -20.1924   -9.5968  -27.9457 C.ar    1  UNL1       -0.0554
     49 C         -19.7038   -8.5552  -28.7285 C.ar    1  UNL1       -0.0610
     50 C         -18.3338   -8.4153  -28.9360 C.ar    1  UNL1       -0.0554
     51 C         -17.4587   -9.3620  -28.3867 C.ar    1  UNL1       -0.0085
     52 C         -16.0268   -9.4222  -28.8868 C.3     1  UNL1       -0.0362
     53 H         -23.7672   -4.6558  -31.6699 H       1  UNL1        0.0232
     54 H         -24.4344   -3.1830  -32.3503 H       1  UNL1        0.0232
     55 H         -22.6932   -3.4234  -32.3349 H       1  UNL1        0.0232
     56 H         -24.5528   -2.5292  -30.1868 H       1  UNL1        0.0296
     57 H         -22.4687   -1.2824  -29.3786 H       1  UNL1        0.0232
     58 H         -21.6845   -1.8232  -30.8657 H       1  UNL1        0.0232
     59 H         -23.1337   -0.8200  -30.9291 H       1  UNL1        0.0232
     60 H         -23.9309   -4.6866  -29.2334 H       1  UNL1        0.0290
     61 H         -23.4881   -3.3074  -28.2839 H       1  UNL1        0.0290
     62 H         -21.0896   -3.5147  -28.9652 H       1  UNL1        0.0595
     63 H         -22.1636   -5.4141  -30.8502 H       1  UNL1        0.1498
     64 H         -22.0905   -7.2978  -31.9430 H       1  UNL1        0.0646
     65 H         -21.8614   -9.6101  -33.8809 H       1  UNL1        0.0624
     66 H         -20.1986  -10.8885  -35.1874 H       1  UNL1        0.0618
     67 H         -17.8269  -10.3034  -35.1154 H       1  UNL1        0.0618
     68 H         -17.0043   -8.4116  -33.7393 H       1  UNL1        0.0638
     69 H         -17.9892   -6.4033  -31.9460 H       1  UNL1        0.1660
     70 H         -20.7496   -3.7638  -26.7548 H       1  UNL1        0.1491
     71 H         -20.3088   -4.6207  -24.8639 H       1  UNL1        0.0527
     72 H         -21.8796   -6.2551  -23.7006 H       1  UNL1        0.0332
     73 H         -22.7448   -6.4132  -25.1841 H       1  UNL1        0.0332
     74 H         -22.1718   -4.3028  -22.2847 H       1  UNL1        0.0620
     75 H         -23.6783   -2.4487  -21.6584 H       1  UNL1        0.0618
     76 H         -25.3426   -1.6226  -23.2756 H       1  UNL1        0.0618
     77 H         -25.4774   -2.5810  -25.5465 H       1  UNL1        0.0618
     78 H         -24.0052   -4.4726  -26.1647 H       1  UNL1        0.0620
     79 H         -19.2213   -6.4945  -26.3863 H       1  UNL1        0.0612
     80 H         -20.4813   -8.2759  -24.7048 H       1  UNL1        0.2099
     81 H         -19.2678   -7.5004  -23.5658 H       1  UNL1        0.0309
     82 H         -18.8467   -5.8610  -23.6868 H       1  UNL1        0.0309
     83 H         -16.8997   -7.2244  -23.6426 H       1  UNL1        0.0502
     84 H         -16.8626   -6.4897  -26.5657 H       1  UNL1        0.0331
     85 H         -15.5829   -6.3802  -25.4106 H       1  UNL1        0.0331
     86 H         -17.8005   -4.4592  -27.2649 H       1  UNL1        0.0620
     87 H         -18.5489   -2.1542  -26.7869 H       1  UNL1        0.0618
     88 H         -18.2011   -1.1795  -24.5525 H       1  UNL1        0.0618
     89 H         -17.1106   -2.4737  -22.7869 H       1  UNL1        0.0618
     90 H         -16.4014   -4.7987  -23.2164 H       1  UNL1        0.0620
     91 H         -18.1495   -8.7957  -25.8101 H       1  UNL1        0.1491
     92 H         -17.6504  -11.4768  -24.8516 H       1  UNL1        0.0795
     93 H         -15.9540  -11.6207  -25.1614 H       1  UNL1        0.0795
     94 H         -20.8778  -11.8549  -26.7436 H       1  UNL1        0.0279
     95 H         -19.2711  -12.4319  -26.3975 H       1  UNL1        0.0279
     96 H         -19.9998  -11.1912  -25.3538 H       1  UNL1        0.0279
     97 H         -21.2599   -9.7096  -27.8325 H       1  UNL1        0.0621
     98 H         -20.4016   -7.8899  -29.2072 H       1  UNL1        0.0618
     99 H         -17.9662   -7.6553  -29.6100 H       1  UNL1        0.0621
    100 H         -15.6677   -8.4108  -28.9782 H       1  UNL1        0.0279
    101 H         -15.3035   -9.9845  -28.2722 H       1  UNL1        0.0279
    102 H         -16.0096   -9.8383  -29.8934 H       1  UNL1        0.0279
@<TRIPOS>BOND
     1     1     2    1
     2     1    53    1
     3     1    54    1
     4     1    55    1
     5     2     3    1
     6     2     4    1
     7     2    56    1
     8     3    57    1
     9     3    58    1
    10     3    59    1
    11     4     5    1
    12     4    60    1
    13     4    61    1
    14     5     6    1
    15     5    18    1
    16     5    62    1
    17     6     7   am
    18     6    63    1
    19     7     8    2
    20     7     9    1
    21     9    17   ar
    22     9    10   ar
    23    10    11   ar
    24    10    64    1
    25    11    16   ar
    26    11    12   ar
    27    12    13   ar
    28    12    65    1
    29    13    14   ar
    30    13    66    1
    31    14    15   ar
    32    14    67    1
    33    15    16   ar
    34    15    68    1
    35    16    17   ar
    36    17    69    1
    37    18    19    2
    38    18    20   am
    39    20    21    1
    40    20    70    1
    41    21    22    1
    42    21    29    1
    43    21    71    1
    44    22    23    1
    45    22    72    1
    46    22    73    1
    47    23    28   ar
    48    23    24   ar
    49    24    25   ar
    50    24    74    1
    51    25    26   ar
    52    25    75    1
    53    26    27   ar
    54    26    76    1
    55    27    28   ar
    56    27    77    1
    57    28    78    1
    58    29    30    1
    59    29    31    1
    60    29    79    1
    61    30    80    1
    62    31    32    1
    63    31    81    1
    64    31    82    1
    65    32    33    1
    66    32    40    1
    67    32    83    1
    68    33    34    1
    69    33    84    1
    70    33    85    1
    71    34    39   ar
    72    34    35   ar
    73    35    36   ar
    74    35    86    1
    75    36    37   ar
    76    36    87    1
    77    37    38   ar
    78    37    88    1
    79    38    39   ar
    80    38    89    1
    81    39    90    1
    82    40    41   am
    83    40    91    1
    84    41    42    2
    85    41    43    1
    86    43    44    1
    87    43    92    1
    88    43    93    1
    89    44    45    1
    90    45    51   ar
    91    45    46   ar
    92    46    47    1
    93    46    48   ar
    94    47    94    1
    95    47    95    1
    96    47    96    1
    97    48    49   ar
    98    48    97    1
    99    49    50   ar
   100    49    98    1
   101    50    51   ar
   102    50    99    1
   103    51    52    1
   104    52   100    1
   105    52   101    1
   106    52   102    1
