@<TRIPOS>MOLECULE
*****
 94 97 0 0 0
SMALL
GASTEIGER
****
Schrodinger Suite 2019-4.
@<TRIPOS>ATOM
      1 C         -23.5924   -8.6510  -26.3913 C.3     1  UNL1       -0.0626
      2 C         -24.0052   -7.6642  -27.4977 C.3     1  UNL1       -0.0446
      3 C         -25.4826   -7.8768  -27.8584 C.3     1  UNL1       -0.0626
      4 C         -23.1156   -7.7470  -28.7659 C.3     1  UNL1       -0.0236
      5 C         -21.6018   -7.4652  -28.5537 C.3     1  UNL1        0.0996
      6 N         -20.7620   -7.6386  -29.7430 N.am    1  UNL1       -0.3025
      7 C         -20.9692   -7.2060  -30.9962 C.2     1  UNL1        0.2342
      8 O         -22.0053   -6.6489  -31.3646 O.2     1  UNL1       -0.2738
      9 C         -19.7920   -7.3696  -31.9731 C.3     1  UNL1        0.1018
     10 N         -19.7960   -6.1744  -32.7863 N.am    1  UNL1       -0.3010
     11 C         -18.8253   -5.6449  -33.5295 C.2     1  UNL1        0.2513
     12 O         -17.7790   -6.2121  -33.8375 O.2     1  UNL1       -0.2721
     13 C         -19.1338   -4.2323  -33.9860 C.3     1  UNL1        0.1652
     14 O         -19.3766   -3.4731  -32.8148 O.3     1  UNL1       -0.4828
     15 C         -20.6478   -3.3115  -32.3065 C.ar    1  UNL1        0.1213
     16 C         -20.7935   -3.3129  -30.9072 C.ar    1  UNL1       -0.0182
     17 C         -22.0022   -2.9531  -30.2976 C.ar    1  UNL1       -0.0372
     18 C         -23.1439   -2.7051  -31.0767 C.ar    1  UNL1        0.0294
     19 C         -23.0174   -2.7887  -32.4814 C.ar    1  UNL1       -0.0372
     20 C         -21.7803   -3.0579  -33.0988 C.ar    1  UNL1       -0.0182
     21 N         -24.3721   -2.3922  -30.4586 N.pl3   1  UNL1       -0.3360
     22 C         -25.4547   -1.8485  -31.2603 C.3     1  UNL1        0.0004
     23 C         -24.5901   -2.7629  -29.0650 C.3     1  UNL1        0.0004
     24 C         -19.7693   -8.6481  -32.8499 C.3     1  UNL1       -0.0197
     25 C         -20.9712   -8.7907  -33.7890 C.3     1  UNL1       -0.0605
     26 C         -19.6180   -9.9267  -32.0147 C.3     1  UNL1       -0.0605
     27 C         -21.2878   -6.1497  -27.8466 C.2     1  UNL1        0.2339
     28 O         -21.2055   -5.1085  -28.4863 O.2     1  UNL1       -0.2738
     29 N         -21.1325   -6.2083  -26.5167 N.am    1  UNL1       -0.3037
     30 C         -21.0058   -5.0769  -25.6082 C.3     1  UNL1        0.0888
     31 C         -22.2652   -4.2009  -25.6922 C.3     1  UNL1       -0.0160
     32 C         -22.4011   -3.1870  -24.5577 C.3     1  UNL1        0.0390
     33 C         -23.4256   -2.1229  -24.9118 C.3     1  UNL1       -0.0262
     34 C         -24.2285   -1.8635  -23.6462 C.3     1  UNL1        0.0123
     35 N         -23.8800   -2.9443  -22.7503 N.am    1  UNL1       -0.3151
     36 C         -22.9114   -3.7207  -23.2290 C.2     1  UNL1        0.2162
     37 O         -22.4622   -4.7220  -22.6808 O.2     1  UNL1       -0.2755
     38 C         -19.6877   -4.3185  -25.8654 C.2     1  UNL1        0.2079
     39 O         -19.6196   -3.2434  -26.4564 O.2     1  UNL1       -0.2879
     40 C         -18.4522   -5.0096  -25.4430 C.ar    1  UNL1        0.1465
     41 N         -18.4193   -6.2048  -24.8452 N.ar    1  UNL1       -0.2360
     42 C         -17.1086   -6.6365  -24.7340 C.ar    1  UNL1        0.0790
     43 C         -16.6695   -7.8881  -24.2542 C.ar    1  UNL1       -0.0352
     44 C         -15.2998   -8.2085  -24.2156 C.ar    1  UNL1       -0.0597
     45 C         -14.3477   -7.2644  -24.6322 C.ar    1  UNL1       -0.0606
     46 C         -14.7594   -6.0064  -25.0952 C.ar    1  UNL1       -0.0459
     47 C         -16.1246   -5.7087  -25.1726 C.ar    1  UNL1        0.0396
     48 S         -16.8960   -4.2765  -25.8224 S.2     1  UNL1       -0.0643
     49 H         -22.5694   -8.4953  -26.0515 H       1  UNL1        0.0232
     50 H         -24.2356   -8.5428  -25.5173 H       1  UNL1        0.0232
     51 H         -23.6754   -9.6825  -26.7346 H       1  UNL1        0.0232
     52 H         -23.9321   -6.6564  -27.0908 H       1  UNL1        0.0296
     53 H         -25.8082   -7.1715  -28.6210 H       1  UNL1        0.0232
     54 H         -25.6595   -8.8812  -28.2444 H       1  UNL1        0.0232
     55 H         -26.1264   -7.7385  -26.9887 H       1  UNL1        0.0232
     56 H         -23.5243   -7.0356  -29.4839 H       1  UNL1        0.0290
     57 H         -23.2355   -8.7307  -29.2226 H       1  UNL1        0.0290
     58 H         -21.2340   -8.2404  -27.8854 H       1  UNL1        0.0594
     59 H         -19.8732   -8.0874  -29.5690 H       1  UNL1        0.1495
     60 H         -18.8737   -7.3449  -31.3836 H       1  UNL1        0.0597
     61 H         -20.6161   -5.5983  -32.6567 H       1  UNL1        0.1496
     62 H         -19.9713   -4.2201  -34.6753 H       1  UNL1        0.0795
     63 H         -18.2728   -3.8334  -34.5204 H       1  UNL1        0.0795
     64 H         -19.9566   -3.5509  -30.2736 H       1  UNL1        0.0655
     65 H         -22.0325   -2.8849  -29.2210 H       1  UNL1        0.0637
     66 H         -23.8742   -2.6330  -33.1061 H       1  UNL1        0.0637
     67 H         -21.7088   -3.0347  -34.1730 H       1  UNL1        0.0655
     68 H         -26.3099   -1.5915  -30.6412 H       1  UNL1        0.0428
     69 H         -25.1276   -0.9337  -31.7516 H       1  UNL1        0.0428
     70 H         -25.7891   -2.5559  -32.0192 H       1  UNL1        0.0428
     71 H         -25.6351   -2.6357  -28.7812 H       1  UNL1        0.0428
     72 H         -24.3271   -3.8089  -28.9032 H       1  UNL1        0.0428
     73 H         -23.9875   -2.1476  -28.3984 H       1  UNL1        0.0428
     74 H         -18.8821   -8.5887  -33.4811 H       1  UNL1        0.0318
     75 H         -20.7456   -9.4643  -34.6164 H       1  UNL1        0.0233
     76 H         -21.8146   -9.2125  -33.2461 H       1  UNL1        0.0233
     77 H         -21.2850   -7.8395  -34.2104 H       1  UNL1        0.0233
     78 H         -19.5007  -10.7997  -32.6582 H       1  UNL1        0.0233
     79 H         -18.7417   -9.8737  -31.3681 H       1  UNL1        0.0233
     80 H         -20.4883  -10.1022  -31.3815 H       1  UNL1        0.0233
     81 H         -21.1856   -7.1192  -26.0849 H       1  UNL1        0.1495
     82 H         -20.9644   -5.5128  -24.6110 H       1  UNL1        0.0582
     83 H         -23.1530   -4.8360  -25.7013 H       1  UNL1        0.0295
     84 H         -22.2795   -3.6659  -26.6426 H       1  UNL1        0.0295
     85 H         -21.4371   -2.7386  -24.3411 H       1  UNL1        0.0395
     86 H         -24.0852   -2.4407  -25.7190 H       1  UNL1        0.0288
     87 H         -22.9045   -1.2356  -25.2403 H       1  UNL1        0.0288
     88 H         -25.3016   -1.8351  -23.8365 H       1  UNL1        0.0462
     89 H         -23.9058   -0.9188  -23.2266 H       1  UNL1        0.0462
     90 H         -24.3659   -3.1096  -21.8796 H       1  UNL1        0.1487
     91 H         -17.3966   -8.6121  -23.9183 H       1  UNL1        0.0639
     92 H         -14.9782   -9.1740  -23.8568 H       1  UNL1        0.0618
     93 H         -13.2957   -7.5092  -24.5964 H       1  UNL1        0.0618
     94 H         -14.0376   -5.2909  -25.4399 H       1  UNL1        0.0629
@<TRIPOS>BOND
     1     1     2    1
     2     1    49    1
     3     1    50    1
     4     1    51    1
     5     2     3    1
     6     2     4    1
     7     2    52    1
     8     3    53    1
     9     3    54    1
    10     3    55    1
    11     4     5    1
    12     4    56    1
    13     4    57    1
    14     5     6    1
    15     5    27    1
    16     5    58    1
    17     6     7   am
    18     6    59    1
    19     7     8    2
    20     7     9    1
    21     9    10    1
    22     9    24    1
    23     9    60    1
    24    10    11   am
    25    10    61    1
    26    11    12    2
    27    11    13    1
    28    13    14    1
    29    13    62    1
    30    13    63    1
    31    14    15    1
    32    15    20   ar
    33    15    16   ar
    34    16    17   ar
    35    16    64    1
    36    17    18   ar
    37    17    65    1
    38    18    19   ar
    39    18    21    1
    40    19    20   ar
    41    19    66    1
    42    20    67    1
    43    21    22    1
    44    21    23    1
    45    22    68    1
    46    22    69    1
    47    22    70    1
    48    23    71    1
    49    23    72    1
    50    23    73    1
    51    24    25    1
    52    24    26    1
    53    24    74    1
    54    25    75    1
    55    25    76    1
    56    25    77    1
    57    26    78    1
    58    26    79    1
    59    26    80    1
    60    27    28    2
    61    27    29   am
    62    29    30    1
    63    29    81    1
    64    30    31    1
    65    30    38    1
    66    30    82    1
    67    31    32    1
    68    31    83    1
    69    31    84    1
    70    32    36    1
    71    32    33    1
    72    32    85    1
    73    33    34    1
    74    33    86    1
    75    33    87    1
    76    34    35    1
    77    34    88    1
    78    34    89    1
    79    35    36   am
    80    35    90    1
    81    36    37    2
    82    38    39    2
    83    38    40    1
    84    40    48   ar
    85    40    41   ar
    86    41    42   ar
    87    42    47   ar
    88    42    43   ar
    89    43    44   ar
    90    43    91    1
    91    44    45   ar
    92    44    92    1
    93    45    46   ar
    94    45    93    1
    95    46    47   ar
    96    46    94    1
    97    47    48   ar
