@<TRIPOS>MOLECULE
*****
 62 64 0 0 0
SMALL
GASTEIGER
****
Schrodinger Suite 2019-4.
@<TRIPOS>ATOM
      1 C         -18.5868   -8.9542  -29.8441 C.3     1  UNL1       -0.0442
      2 C         -19.7685   -8.8998  -28.8539 C.3     1  UNL1        0.0262
      3 C         -21.0825   -9.1113  -29.6418 C.3     1  UNL1       -0.0442
      4 C         -19.5853  -10.0255  -27.8095 C.3     1  UNL1       -0.0442
      5 N         -19.7341   -7.5785  -28.2194 N.am    1  UNL1       -0.3087
      6 C         -20.5586   -7.0786  -27.2778 C.2     1  UNL1        0.2404
      7 O         -21.5230   -7.6849  -26.8128 O.2     1  UNL1       -0.2733
      8 C         -20.2116   -5.6414  -26.7854 C.3     1  UNL1        0.1505
      9 C         -18.8891   -5.4854  -26.0320 C.ar    1  UNL1        0.0890
     10 C         -18.4091   -4.2287  -25.6455 C.ar    1  UNL1        0.0512
     11 N         -17.2023   -4.0852  -25.0412 N.ar    1  UNL1       -0.2599
     12 C         -16.4619   -5.2054  -24.8433 C.ar    1  UNL1        0.0457
     13 C         -16.9328   -6.4629  -25.2140 C.ar    1  UNL1        0.0460
     14 N         -18.1486   -6.6106  -25.7927 N.ar    1  UNL1       -0.2545
     15 N         -21.3882   -4.8669  -26.2515 N.am    1  UNL1       -0.2473
     16 C         -21.6992   -4.8159  -24.9113 C.2     1  UNL1        0.2871
     17 O         -20.9767   -5.2850  -24.0392 O.2     1  UNL1       -0.2662
     18 C         -22.8787   -4.1296  -24.4298 C.ar    1  UNL1        0.1896
     19 C         -23.5412   -4.2722  -23.2141 C.ar    1  UNL1       -0.0113
     20 C         -24.4751   -3.2454  -23.1185 C.ar    1  UNL1       -0.0231
     21 C         -24.3118   -2.4850  -24.2553 C.ar    1  UNL1        0.0928
     22 O         -23.3458   -3.0150  -25.0505 O.2     1  UNL1       -0.4583
     23 C         -22.2964   -4.4340  -27.2404 C.ar    1  UNL1        0.0379
     24 C         -23.4192   -5.1877  -27.5841 C.ar    1  UNL1       -0.0400
     25 C         -24.1751   -4.8230  -28.6948 C.ar    1  UNL1       -0.0563
     26 C         -23.8495   -3.6853  -29.4538 C.ar    1  UNL1       -0.0419
     27 C         -24.6366   -3.3526  -30.7475 C.3     1  UNL1       -0.0127
     28 C         -24.0866   -4.2271  -31.8947 C.3     1  UNL1       -0.0560
     29 C         -24.5135   -1.8650  -31.1690 C.3     1  UNL1       -0.0560
     30 C         -26.1466   -3.6501  -30.5816 C.3     1  UNL1       -0.0560
     31 C         -22.7525   -2.9088  -29.0529 C.ar    1  UNL1       -0.0563
     32 C         -21.9827   -3.2850  -27.9586 C.ar    1  UNL1       -0.0400
     33 H         -17.6294   -8.8165  -29.3366 H       1  UNL1        0.0250
     34 H         -18.5409   -9.9132  -30.3615 H       1  UNL1        0.0250
     35 H         -18.6621   -8.1772  -30.6071 H       1  UNL1        0.0250
     36 H         -21.9543   -9.1223  -28.9864 H       1  UNL1        0.0250
     37 H         -21.2402   -8.3229  -30.3797 H       1  UNL1        0.0250
     38 H         -21.0773  -10.0622  -30.1767 H       1  UNL1        0.0250
     39 H         -20.4090  -10.0585  -27.0952 H       1  UNL1        0.0250
     40 H         -19.5342  -11.0070  -28.2827 H       1  UNL1        0.0250
     41 H         -18.6656   -9.8896  -27.2374 H       1  UNL1        0.0250
     42 H         -18.9620   -6.9982  -28.5103 H       1  UNL1        0.1493
     43 H         -20.0372   -5.1603  -27.7492 H       1  UNL1        0.0667
     44 H         -18.9791   -3.3291  -25.8243 H       1  UNL1        0.0848
     45 H         -15.4809   -5.0904  -24.4140 H       1  UNL1        0.0845
     46 H         -16.3349   -7.3523  -25.0718 H       1  UNL1        0.0845
     47 H         -23.3653   -5.0366  -22.4705 H       1  UNL1        0.0657
     48 H         -25.1669   -3.0679  -22.3071 H       1  UNL1        0.0649
     49 H         -24.7825   -1.5889  -24.6223 H       1  UNL1        0.1029
     50 H         -23.6657   -6.0849  -27.0370 H       1  UNL1        0.0636
     51 H         -24.9914   -5.4682  -28.9778 H       1  UNL1        0.0621
     52 H         -24.6526   -4.0803  -32.8137 H       1  UNL1        0.0238
     53 H         -23.0421   -3.9995  -32.1124 H       1  UNL1        0.0238
     54 H         -24.1418   -5.2871  -31.6456 H       1  UNL1        0.0238
     55 H         -25.1647   -1.6398  -32.0137 H       1  UNL1        0.0238
     56 H         -24.7906   -1.1916  -30.3586 H       1  UNL1        0.0238
     57 H         -23.5030   -1.6046  -31.4861 H       1  UNL1        0.0238
     58 H         -26.7226   -3.3316  -31.4522 H       1  UNL1        0.0238
     59 H         -26.3231   -4.7184  -30.4765 H       1  UNL1        0.0238
     60 H         -26.5663   -3.1480  -29.7088 H       1  UNL1        0.0238
     61 H         -22.4547   -2.0239  -29.5937 H       1  UNL1        0.0621
     62 H         -21.1227   -2.6968  -27.6838 H       1  UNL1        0.0636
@<TRIPOS>BOND
     1     1     2    1
     2     1    33    1
     3     1    34    1
     4     1    35    1
     5     2     3    1
     6     2     4    1
     7     2     5    1
     8     3    36    1
     9     3    37    1
    10     3    38    1
    11     4    39    1
    12     4    40    1
    13     4    41    1
    14     5     6   am
    15     5    42    1
    16     6     7    2
    17     6     8    1
    18     8     9    1
    19     8    15    1
    20     8    43    1
    21     9    14   ar
    22     9    10   ar
    23    10    11   ar
    24    10    44    1
    25    11    12   ar
    26    12    13   ar
    27    12    45    1
    28    13    14   ar
    29    13    46    1
    30    15    16   am
    31    15    23    1
    32    16    17    2
    33    16    18    1
    34    18    22   ar
    35    18    19   ar
    36    19    20   ar
    37    19    47    1
    38    20    21   ar
    39    20    48    1
    40    21    22   ar
    41    21    49    1
    42    23    32   ar
    43    23    24   ar
    44    24    25   ar
    45    24    50    1
    46    25    26   ar
    47    25    51    1
    48    26    27    1
    49    26    31   ar
    50    27    28    1
    51    27    29    1
    52    27    30    1
    53    28    52    1
    54    28    53    1
    55    28    54    1
    56    29    55    1
    57    29    56    1
    58    29    57    1
    59    30    58    1
    60    30    59    1
    61    30    60    1
    62    31    32   ar
    63    31    61    1
    64    32    62    1
