@<TRIPOS>MOLECULE
*****
 90 93 0 0 0
SMALL
GASTEIGER
****
Schrodinger Suite 2019-4.
@<TRIPOS>ATOM
      1 C         -16.4348   -6.1495  -25.2729 C.3     1  UNL1       -0.0626
      2 C         -16.7164   -4.6389  -25.3463 C.3     1  UNL1       -0.0446
      3 C         -15.6770   -3.9668  -24.5037 C.3     1  UNL1       -0.0626
      4 C         -18.0987   -4.2553  -24.8329 C.3     1  UNL1       -0.0236
      5 C         -19.2116   -5.0067  -25.5605 C.3     1  UNL1        0.0996
      6 N         -20.4726   -5.0525  -24.8537 N.am    1  UNL1       -0.3025
      7 C         -21.0607   -4.1514  -24.0607 C.2     1  UNL1        0.2342
      8 O         -20.5224   -3.1298  -23.6427 O.2     1  UNL1       -0.2738
      9 C         -22.5228   -4.5044  -23.7688 C.3     1  UNL1        0.1017
     10 N         -23.2615   -4.6272  -25.0216 N.am    1  UNL1       -0.3027
     11 C         -23.8946   -3.6289  -25.6481 C.2     1  UNL1        0.2275
     12 O         -23.8672   -2.4566  -25.2876 O.2     1  UNL1       -0.2744
     13 C         -24.6606   -3.9963  -26.8912 C.3     1  UNL1        0.0735
     14 C         -24.5142   -3.5404  -29.1693 C.3     1  UNL1        0.0217
     15 C         -23.8188   -3.7350  -30.4894 C.ar    1  UNL1       -0.0336
     16 C         -23.3132   -2.6281  -31.1993 C.ar    1  UNL1       -0.0573
     17 C         -22.8238   -2.8099  -32.5045 C.ar    1  UNL1       -0.0615
     18 C         -22.8420   -4.0855  -33.0944 C.ar    1  UNL1       -0.0617
     19 C         -23.2989   -5.1959  -32.3652 C.ar    1  UNL1       -0.0615
     20 C         -23.7804   -5.0190  -31.0599 C.ar    1  UNL1       -0.0573
     21 C         -23.3506   -3.7716  -22.6788 C.3     1  UNL1       -0.0197
     22 C         -22.6450   -3.5414  -21.3643 C.3     1  UNL1       -0.0605
     23 C         -24.6378   -4.5819  -22.3943 C.3     1  UNL1       -0.0605
     24 C         -19.4307   -4.6389  -27.0275 C.2     1  UNL1        0.2339
     25 O         -20.1218   -3.6704  -27.3301 O.2     1  UNL1       -0.2738
     26 N         -18.8949   -5.4993  -27.9035 N.am    1  UNL1       -0.3037
     27 C         -19.2360   -5.7337  -29.3032 C.3     1  UNL1        0.0888
     28 C         -19.3906   -4.4967  -30.2121 C.3     1  UNL1       -0.0160
     29 C         -19.4642   -4.7415  -31.7455 C.3     1  UNL1        0.0390
     30 C         -19.5628   -3.5083  -32.6719 C.3     1  UNL1       -0.0262
     31 C         -18.1822   -3.2974  -33.3295 C.3     1  UNL1        0.0123
     32 N         -17.4476   -4.4656  -32.9610 N.am    1  UNL1       -0.3151
     33 C         -18.1954   -5.3511  -32.3188 C.2     1  UNL1        0.2162
     34 O         -17.9407   -6.5431  -32.2815 O.2     1  UNL1       -0.2755
     35 C         -20.4012   -6.7113  -29.4098 C.2     1  UNL1        0.2079
     36 O         -21.5060   -6.4994  -28.9117 O.2     1  UNL1       -0.2879
     37 C         -20.1607   -7.8994  -30.2540 C.ar    1  UNL1        0.1465
     38 N         -18.9654   -8.4664  -30.4464 N.ar    1  UNL1       -0.2360
     39 C         -19.0257   -9.3209  -31.5346 C.ar    1  UNL1        0.0790
     40 C         -17.9366   -9.9571  -32.1697 C.ar    1  UNL1       -0.0352
     41 C         -18.1407  -10.7967  -33.2796 C.ar    1  UNL1       -0.0597
     42 C         -19.4439  -11.0343  -33.7566 C.ar    1  UNL1       -0.0606
     43 C         -20.5454  -10.4087  -33.1451 C.ar    1  UNL1       -0.0459
     44 C         -20.3323   -9.5442  -32.0588 C.ar    1  UNL1        0.0396
     45 S         -21.5056   -8.5736  -31.1719 S.2     1  UNL1       -0.0643
     46 N         -23.7483   -3.9896  -28.0330 N.3     1  UNL1       -0.3042
     47 H         -16.9329   -6.7045  -26.0666 H       1  UNL1        0.0232
     48 H         -15.3731   -6.3589  -25.3607 H       1  UNL1        0.0232
     49 H         -16.7575   -6.5682  -24.3183 H       1  UNL1        0.0232
     50 H         -16.6202   -4.2820  -26.3699 H       1  UNL1        0.0296
     51 H         -15.9006   -2.9381  -24.2614 H       1  UNL1        0.0232
     52 H         -15.6168   -4.4967  -23.5584 H       1  UNL1        0.0232
     53 H         -14.7210   -4.0262  -25.0076 H       1  UNL1        0.0232
     54 H         -18.2471   -3.1798  -24.9363 H       1  UNL1        0.0290
     55 H         -18.1564   -4.4749  -23.7696 H       1  UNL1        0.0290
     56 H         -18.9646   -6.0673  -25.5437 H       1  UNL1        0.0594
     57 H         -21.0462   -5.8487  -25.0899 H       1  UNL1        0.1495
     58 H         -22.4396   -5.5268  -23.4108 H       1  UNL1        0.0597
     59 H         -23.3298   -5.5495  -25.4253 H       1  UNL1        0.1495
     60 H         -25.4642   -3.2626  -26.9979 H       1  UNL1        0.0520
     61 H         -25.1325   -4.9751  -26.7952 H       1  UNL1        0.0520
     62 H         -25.4596   -4.0856  -29.2210 H       1  UNL1        0.0474
     63 H         -24.7518   -2.4863  -29.0265 H       1  UNL1        0.0474
     64 H         -23.3267   -1.6394  -30.7638 H       1  UNL1        0.0621
     65 H         -22.4223   -1.9850  -33.0662 H       1  UNL1        0.0618
     66 H         -22.4826   -4.2152  -34.1039 H       1  UNL1        0.0618
     67 H         -23.3082   -6.1790  -32.8102 H       1  UNL1        0.0618
     68 H         -24.1789   -5.8581  -30.5165 H       1  UNL1        0.0621
     69 H         -23.6103   -2.7684  -22.9993 H       1  UNL1        0.0318
     70 H         -23.2302   -2.8905  -20.7147 H       1  UNL1        0.0233
     71 H         -22.5921   -4.5117  -20.8868 H       1  UNL1        0.0233
     72 H         -21.6583   -3.0973  -21.4631 H       1  UNL1        0.0233
     73 H         -25.3557   -4.5055  -23.2104 H       1  UNL1        0.0233
     74 H         -24.4304   -5.6372  -22.2499 H       1  UNL1        0.0233
     75 H         -25.1386   -4.2697  -21.4786 H       1  UNL1        0.0233
     76 H         -18.3127   -6.2178  -27.4984 H       1  UNL1        0.1495
     77 H         -18.3279   -6.2260  -29.6372 H       1  UNL1        0.0582
     78 H         -18.4848   -3.9694  -30.0349 H       1  UNL1        0.0295
     79 H         -20.2265   -3.8699  -29.9004 H       1  UNL1        0.0295
     80 H         -20.3201   -5.3873  -31.8989 H       1  UNL1        0.0395
     81 H         -19.9884   -2.6437  -32.1850 H       1  UNL1        0.0288
     82 H         -20.2452   -3.7174  -33.4898 H       1  UNL1        0.0288
     83 H         -17.6213   -2.4133  -33.0508 H       1  UNL1        0.0462
     84 H         -18.2707   -3.2579  -34.4139 H       1  UNL1        0.0462
     85 H         -16.5948   -4.7165  -33.4370 H       1  UNL1        0.1487
     86 H         -16.9352   -9.7921  -31.7969 H       1  UNL1        0.0639
     87 H         -17.2967  -11.2714  -33.7569 H       1  UNL1        0.0618
     88 H         -19.5938  -11.6954  -34.5967 H       1  UNL1        0.0618
     89 H         -21.5450  -10.5766  -33.5183 H       1  UNL1        0.0629
     90 H         -23.0162   -3.3084  -27.8830 H       1  UNL1        0.1227
@<TRIPOS>BOND
     1     1     2    1
     2     1    47    1
     3     1    48    1
     4     1    49    1
     5     2     3    1
     6     2     4    1
     7     2    50    1
     8     3    51    1
     9     3    52    1
    10     3    53    1
    11     4     5    1
    12     4    54    1
    13     4    55    1
    14     5     6    1
    15     5    24    1
    16     5    56    1
    17     6     7   am
    18     6    57    1
    19     7     8    2
    20     7     9    1
    21     9    10    1
    22     9    21    1
    23     9    58    1
    24    10    11   am
    25    10    59    1
    26    11    12    2
    27    11    13    1
    28    13    46    1
    29    13    60    1
    30    13    61    1
    31    14    15    1
    32    14    46    1
    33    14    62    1
    34    14    63    1
    35    15    20   ar
    36    15    16   ar
    37    16    17   ar
    38    16    64    1
    39    17    18   ar
    40    17    65    1
    41    18    19   ar
    42    18    66    1
    43    19    20   ar
    44    19    67    1
    45    20    68    1
    46    21    22    1
    47    21    23    1
    48    21    69    1
    49    22    70    1
    50    22    71    1
    51    22    72    1
    52    23    73    1
    53    23    74    1
    54    23    75    1
    55    24    25    2
    56    24    26   am
    57    26    27    1
    58    26    76    1
    59    27    28    1
    60    27    35    1
    61    27    77    1
    62    28    29    1
    63    28    78    1
    64    28    79    1
    65    29    33    1
    66    29    30    1
    67    29    80    1
    68    30    31    1
    69    30    81    1
    70    30    82    1
    71    31    32    1
    72    31    83    1
    73    31    84    1
    74    32    33   am
    75    32    85    1
    76    33    34    2
    77    35    36    2
    78    35    37    1
    79    37    45   ar
    80    37    38   ar
    81    38    39   ar
    82    39    44   ar
    83    39    40   ar
    84    40    41   ar
    85    40    86    1
    86    41    42   ar
    87    41    87    1
    88    42    43   ar
    89    42    88    1
    90    43    44   ar
    91    43    89    1
    92    44    45   ar
    93    46    90    1
