
                    3D
 Schrodinger Suite 2019-4.
 90 93  0  0  1  0            999 V2000
  -16.4348   -6.1495  -25.2729 C   0  0  0  0  0  0
  -16.7164   -4.6389  -25.3463 C   0  0  0  0  0  0
  -15.6770   -3.9668  -24.5037 C   0  0  0  0  0  0
  -18.0987   -4.2553  -24.8329 C   0  0  0  0  0  0
  -19.2116   -5.0067  -25.5605 C   0  0  1  0  0  0
  -20.4726   -5.0525  -24.8537 N   0  0  0  0  0  0
  -21.0607   -4.1514  -24.0607 C   0  0  0  0  0  0
  -20.5224   -3.1298  -23.6427 O   0  0  0  0  0  0
  -22.5228   -4.5044  -23.7688 C   0  0  2  0  0  0
  -23.2615   -4.6272  -25.0216 N   0  0  0  0  0  0
  -23.8946   -3.6289  -25.6481 C   0  0  0  0  0  0
  -23.8672   -2.4566  -25.2876 O   0  0  0  0  0  0
  -24.6606   -3.9963  -26.8912 C   0  0  0  0  0  0
  -24.5142   -3.5404  -29.1693 C   0  0  0  0  0  0
  -23.8188   -3.7350  -30.4894 C   0  0  0  0  0  0
  -23.3132   -2.6281  -31.1993 C   0  0  0  0  0  0
  -22.8238   -2.8099  -32.5045 C   0  0  0  0  0  0
  -22.8420   -4.0855  -33.0944 C   0  0  0  0  0  0
  -23.2989   -5.1959  -32.3652 C   0  0  0  0  0  0
  -23.7804   -5.0190  -31.0599 C   0  0  0  0  0  0
  -23.3506   -3.7716  -22.6788 C   0  0  0  0  0  0
  -22.6450   -3.5414  -21.3643 C   0  0  0  0  0  0
  -24.6378   -4.5819  -22.3943 C   0  0  0  0  0  0
  -19.4307   -4.6389  -27.0275 C   0  0  0  0  0  0
  -20.1218   -3.6704  -27.3301 O   0  0  0  0  0  0
  -18.8949   -5.4993  -27.9035 N   0  0  0  0  0  0
  -19.2360   -5.7337  -29.3032 C   0  0  2  0  0  0
  -19.3906   -4.4967  -30.2121 C   0  0  0  0  0  0
  -19.4642   -4.7415  -31.7455 C   0  0  1  0  0  0
  -19.5628   -3.5083  -32.6719 C   0  0  0  0  0  0
  -18.1822   -3.2974  -33.3295 C   0  0  0  0  0  0
  -17.4476   -4.4656  -32.9610 N   0  0  0  0  0  0
  -18.1954   -5.3511  -32.3188 C   0  0  0  0  0  0
  -17.9407   -6.5431  -32.2815 O   0  0  0  0  0  0
  -20.4012   -6.7113  -29.4098 C   0  0  0  0  0  0
  -21.5060   -6.4994  -28.9117 O   0  0  0  0  0  0
  -20.1607   -7.8994  -30.2540 C   0  0  0  0  0  0
  -18.9654   -8.4664  -30.4464 N   0  0  0  0  0  0
  -19.0257   -9.3209  -31.5346 C   0  0  0  0  0  0
  -17.9366   -9.9571  -32.1697 C   0  0  0  0  0  0
  -18.1407  -10.7967  -33.2796 C   0  0  0  0  0  0
  -19.4439  -11.0343  -33.7566 C   0  0  0  0  0  0
  -20.5454  -10.4087  -33.1451 C   0  0  0  0  0  0
  -20.3323   -9.5442  -32.0588 C   0  0  0  0  0  0
  -21.5056   -8.5736  -31.1719 S   0  0  0  0  0  0
  -23.7483   -3.9896  -28.0330 N   0  0  0  0  0  0
  -16.9329   -6.7045  -26.0666 H   0  0  0  0  0  0
  -15.3731   -6.3589  -25.3607 H   0  0  0  0  0  0
  -16.7575   -6.5682  -24.3183 H   0  0  0  0  0  0
  -16.6202   -4.2820  -26.3699 H   0  0  0  0  0  0
  -15.9006   -2.9381  -24.2614 H   0  0  0  0  0  0
  -15.6168   -4.4967  -23.5584 H   0  0  0  0  0  0
  -14.7210   -4.0262  -25.0076 H   0  0  0  0  0  0
  -18.2471   -3.1798  -24.9363 H   0  0  0  0  0  0
  -18.1564   -4.4749  -23.7696 H   0  0  0  0  0  0
  -18.9646   -6.0673  -25.5437 H   0  0  0  0  0  0
  -21.0462   -5.8487  -25.0899 H   0  0  0  0  0  0
  -22.4396   -5.5268  -23.4108 H   0  0  0  0  0  0
  -23.3298   -5.5495  -25.4253 H   0  0  0  0  0  0
  -25.4642   -3.2626  -26.9979 H   0  0  0  0  0  0
  -25.1325   -4.9751  -26.7952 H   0  0  0  0  0  0
  -25.4596   -4.0856  -29.2210 H   0  0  0  0  0  0
  -24.7518   -2.4863  -29.0265 H   0  0  0  0  0  0
  -23.3267   -1.6394  -30.7638 H   0  0  0  0  0  0
  -22.4223   -1.9850  -33.0662 H   0  0  0  0  0  0
  -22.4826   -4.2152  -34.1039 H   0  0  0  0  0  0
  -23.3082   -6.1790  -32.8102 H   0  0  0  0  0  0
  -24.1789   -5.8581  -30.5165 H   0  0  0  0  0  0
  -23.6103   -2.7684  -22.9993 H   0  0  0  0  0  0
  -23.2302   -2.8905  -20.7147 H   0  0  0  0  0  0
  -22.5921   -4.5117  -20.8868 H   0  0  0  0  0  0
  -21.6583   -3.0973  -21.4631 H   0  0  0  0  0  0
  -25.3557   -4.5055  -23.2104 H   0  0  0  0  0  0
  -24.4304   -5.6372  -22.2499 H   0  0  0  0  0  0
  -25.1386   -4.2697  -21.4786 H   0  0  0  0  0  0
  -18.3127   -6.2178  -27.4984 H   0  0  0  0  0  0
  -18.3279   -6.2260  -29.6372 H   0  0  0  0  0  0
  -18.4848   -3.9694  -30.0349 H   0  0  0  0  0  0
  -20.2265   -3.8699  -29.9004 H   0  0  0  0  0  0
  -20.3201   -5.3873  -31.8989 H   0  0  0  0  0  0
  -19.9884   -2.6437  -32.1850 H   0  0  0  0  0  0
  -20.2452   -3.7174  -33.4898 H   0  0  0  0  0  0
  -17.6213   -2.4133  -33.0508 H   0  0  0  0  0  0
  -18.2707   -3.2579  -34.4139 H   0  0  0  0  0  0
  -16.5948   -4.7165  -33.4370 H   0  0  0  0  0  0
  -16.9352   -9.7921  -31.7969 H   0  0  0  0  0  0
  -17.2967  -11.2714  -33.7569 H   0  0  0  0  0  0
  -19.5938  -11.6954  -34.5967 H   0  0  0  0  0  0
  -21.5450  -10.5766  -33.5183 H   0  0  0  0  0  0
  -23.0162   -3.3084  -27.8830 H   0  0  0  0  0  0
  1  2  1  0  0  0
  1 47  1  0  0  0
  1 48  1  0  0  0
  1 49  1  0  0  0
  2  3  1  0  0  0
  2  4  1  0  0  0
  2 50  1  0  0  0
  3 51  1  0  0  0
  3 52  1  0  0  0
  3 53  1  0  0  0
  4  5  1  0  0  0
  4 54  1  0  0  0
  4 55  1  0  0  0
  5  6  1  0  0  0
  5 24  1  0  0  0
  5 56  1  0  0  0
  6  7  1  0  0  0
  6 57  1  0  0  0
  7  8  2  0  0  0
  7  9  1  0  0  0
  9 10  1  0  0  0
  9 21  1  0  0  0
  9 58  1  0  0  0
 10 11  1  0  0  0
 10 59  1  0  0  0
 11 12  2  0  0  0
 11 13  1  0  0  0
 13 46  1  0  0  0
 13 60  1  0  0  0
 13 61  1  0  0  0
 14 15  1  0  0  0
 14 46  1  0  0  0
 14 62  1  0  0  0
 14 63  1  0  0  0
 15 20  1  0  0  0
 15 16  2  0  0  0
 16 17  1  0  0  0
 16 64  1  0  0  0
 17 18  2  0  0  0
 17 65  1  0  0  0
 18 19  1  0  0  0
 18 66  1  0  0  0
 19 20  2  0  0  0
 19 67  1  0  0  0
 20 68  1  0  0  0
 21 22  1  0  0  0
 21 23  1  0  0  0
 21 69  1  0  0  0
 22 70  1  0  0  0
 22 71  1  0  0  0
 22 72  1  0  0  0
 23 73  1  0  0  0
 23 74  1  0  0  0
 23 75  1  0  0  0
 24 25  2  0  0  0
 24 26  1  0  0  0
 26 27  1  0  0  0
 26 76  1  0  0  0
 27 28  1  0  0  0
 27 35  1  0  0  0
 27 77  1  0  0  0
 28 29  1  0  0  0
 28 78  1  0  0  0
 28 79  1  0  0  0
 29 33  1  0  0  0
 29 30  1  0  0  0
 29 80  1  0  0  0
 30 31  1  0  0  0
 30 81  1  0  0  0
 30 82  1  0  0  0
 31 32  1  0  0  0
 31 83  1  0  0  0
 31 84  1  0  0  0
 32 33  1  0  0  0
 32 85  1  0  0  0
 33 34  2  0  0  0
 35 36  2  0  0  0
 35 37  1  0  0  0
 37 45  1  0  0  0
 37 38  2  0  0  0
 38 39  1  0  0  0
 39 44  1  0  0  0
 39 40  2  0  0  0
 40 41  1  0  0  0
 40 86  1  0  0  0
 41 42  2  0  0  0
 41 87  1  0  0  0
 42 43  1  0  0  0
 42 88  1  0  0  0
 43 44  2  0  0  0
 43 89  1  0  0  0
 44 45  1  0  0  0
 46 90  1  0  0  0
M  END
$$$$
