@<TRIPOS>MOLECULE
/home/lixiaoshuang.lxs/med/data/m_pro/PDB_BA/3vb5/3vb5_ligand.pdb
 39 39 0 0 0
SMALL
GASTEIGER

@<TRIPOS>ATOM
      1  C1        -2.0550  -20.8830   36.3450 C.2     1  PHQ1        0.4218
      2  O1        -2.3750  -22.0590   36.3190 O.2     1  PHQ1       -0.2245
      3  O2        -0.6880  -20.4930   36.0520 O.3     1  PHQ1       -0.4285
      4  C2         0.2770  -21.5110   35.7020 C.3     1  PHQ1        0.2368
      5  C3         1.4310  -20.9270   35.0000 C.ar    1  PHQ1        0.0213
      6  C4         2.4880  -21.7190   34.5730 C.ar    1  PHQ1       -0.0007
      7  C5         3.5500  -21.1140   33.9120 C.ar    1  PHQ1       -0.0002
      8  C6         3.5560  -19.7400   33.6820 C.ar    1  PHQ1       -0.0000
      9  C7         2.4980  -18.9460   34.1140 C.ar    1  PHQ1       -0.0002
     10  C8         1.4310  -19.5480   34.7740 C.ar    1  PHQ1       -0.0007
     11  N         -2.9080  -19.8950   36.6340 N.am    2  ALA2       -0.1611
     12  CA        -2.4310  -18.5010   36.6400 C.3     2  ALA2        0.1762
     13  C         -1.4600  -18.1790   37.7630 C.2     2  ALA2        0.2617
     14  O         -1.4720  -18.7910   38.8230 O.2     2  ALA2       -0.2715
     15  CB        -3.6200  -17.5340   36.6950 C.3     2  ALA2        0.0335
     16  N         -0.5880  -17.1900   37.5420 N.am    3  VAL3       -0.1963
     17  CA         0.3870  -16.7480   38.5370 C.3     3  VAL3        0.1727
     18  C          0.2820  -15.2570   38.6850 C.2     3  VAL3        0.2616
     19  O          0.6560  -14.5300   37.7740 O.2     3  VAL3       -0.2715
     20  CB         1.8060  -17.0750   38.0730 C.3     3  VAL3        0.0290
     21  CG1        2.8300  -16.1540   38.7260 C.3     3  VAL3        0.0023
     22  CG2        2.2000  -18.5000   38.4230 C.3     3  VAL3        0.0023
     23  N         -0.2410  -14.7930   39.8250 N.am    4  LEU4       -0.1963
     24  CA        -0.3730  -13.3650   40.0790 C.3     4  LEU4        0.1728
     25  C          0.9960  -12.7500   40.0160 C.2     4  LEU4        0.2615
     26  O          1.8820  -13.0840   40.7880 O.2     4  LEU4       -0.2715
     27  CB        -1.0000  -13.2550   41.4650 C.3     4  LEU4        0.0311
     28  CG        -2.4270  -13.7980   41.4200 C.3     4  LEU4        0.0022
     29  CD1       -3.1210  -13.6790   42.7730 C.3     4  LEU4        0.0001
     30  CD2       -3.2520  -13.1100   40.3310 C.3     4  LEU4        0.0001
     31  C          2.5460   -9.7360   39.1670 C.2     5  0JU5        0.1171
     32  NF         3.5850   -9.2330   39.6700 N.2     5  0JU5       -0.1496
     33  CA         2.5090  -11.2160   38.8760 C.3     5  0JU5        0.1387
     34  N          1.2000  -11.8520   39.0510 N.am    5  0JU5       -0.1995
     35  CB         2.7920  -11.4620   37.3980 C.3     5  0JU5        0.0375
     36  CG         4.2810  -11.5020   37.1130 C.3     5  0JU5        0.0907
     37  CD         4.4800  -12.1790   35.7780 C.2     5  0JU5        0.2608
     38  OE         3.9320  -11.7520   34.7750 O.2     5  0JU5       -0.2717
     39  NE         5.2530  -13.2630   35.7540 N.am    5  0JU5       -0.0878
@<TRIPOS>BOND
     1     8     7   ar
     2     8     9   ar
     3     7     6   ar
     4     9    10   ar
     5     6     5   ar
     6    10     5   ar
     7    38    37    2
     8     5     4    1
     9     4     3    1
    10    39    37   am
    11    37    36    1
    12     3     1    1
    13     2     1    2
    14     1    11   am
    15    11    12    1
    16    12    15    1
    17    12    13    1
    18    36    35    1
    19    35    33    1
    20    16    13   am
    21    16    17    1
    22    13    14    2
    23    19    18    2
    24    20    22    1
    25    20    17    1
    26    20    21    1
    27    17    18    1
    28    18    23   am
    29    33    34    1
    30    33    31    1
    31    34    25   am
    32    31    32    2
    33    23    24    1
    34    25    24    1
    35    25    26    2
    36    24    27    1
    37    30    28    1
    38    28    27    1
    39    28    29    1
