@<TRIPOS>MOLECULE
*****
 68 69 0 0 0
SMALL
GASTEIGER
****
Schrodinger Suite 2019-4.
@<TRIPOS>ATOM
      1 C         -21.9239   -6.0161  -23.9293 C.3     1  UNL1       -0.0381
      2 C         -20.9087   -5.0211  -24.5179 C.3     1  UNL1        0.0966
      3 N         -21.1626   -4.7709  -25.9478 N.am    1  UNL1       -0.3027
      4 C         -21.1442   -5.6534  -26.9639 C.2     1  UNL1        0.2344
      5 O         -20.9120   -6.8566  -26.8152 O.2     1  UNL1       -0.2737
      6 C         -21.3982   -5.0761  -28.3749 C.3     1  UNL1        0.1064
      7 C         -22.7987   -4.4274  -28.5618 C.3     1  UNL1       -0.0005
      8 C         -22.9719   -3.7231  -29.8989 C.ar    1  UNL1       -0.0451
      9 C         -22.6532   -2.3554  -30.0262 C.ar    1  UNL1       -0.0585
     10 C         -22.6181   -1.7618  -31.2771 C.ar    1  UNL1       -0.0615
     11 C         -22.8886   -2.5165  -32.4109 C.ar    1  UNL1       -0.0617
     12 C         -23.1971   -3.8647  -32.3073 C.ar    1  UNL1       -0.0615
     13 C         -23.2323   -4.4760  -31.0649 C.ar    1  UNL1       -0.0585
     14 N         -21.1846   -6.0710  -29.4413 N.am    1  UNL1       -0.2695
     15 C         -20.0019   -6.1377  -30.1583 C.2     1  UNL1        0.4012
     16 O         -19.0234   -5.3980  -30.0405 O.2     1  UNL1       -0.2265
     17 O         -20.0910   -7.1907  -30.9978 O.3     1  UNL1       -0.4456
     18 C         -18.9558   -7.7177  -31.6842 C.3     1  UNL1        0.1191
     19 C         -18.0628   -8.6003  -30.8075 C.ar    1  UNL1       -0.0103
     20 C         -16.8792   -9.0981  -31.3641 C.ar    1  UNL1       -0.0554
     21 C         -16.0223   -9.8849  -30.5997 C.ar    1  UNL1       -0.0614
     22 C         -16.3595  -10.1840  -29.2814 C.ar    1  UNL1       -0.0617
     23 C         -17.5423   -9.7083  -28.7202 C.ar    1  UNL1       -0.0614
     24 C         -18.3903   -8.9135  -29.4800 C.ar    1  UNL1       -0.0554
     25 C         -19.4540   -5.4054  -24.1657 C.2     1  UNL1        0.2336
     26 O         -18.9631   -4.9098  -23.1521 O.2     1  UNL1       -0.2738
     27 N         -18.7896   -6.1971  -25.0339 N.am    1  UNL1       -0.3038
     28 C         -17.3670   -6.6104  -25.0975 C.3     1  UNL1        0.0909
     29 C         -16.3381   -5.5026  -24.6890 C.3     1  UNL1       -0.0190
     30 C         -16.1555   -4.2673  -25.6158 C.3     1  UNL1        0.0258
     31 C         -17.4313   -3.6336  -26.1722 C.2     1  UNL1        0.2106
     32 N         -17.7587   -2.4140  -25.7712 N.am    1  UNL1       -0.3293
     33 O         -18.1308   -4.2346  -26.9746 O.2     1  UNL1       -0.2760
     34 C         -17.2042   -7.8820  -24.2614 C.2     1  UNL1        0.2553
     35 O         -17.7559   -8.0372  -23.1748 O.2     1  UNL1       -0.2860
     36 C         -16.1485   -8.9049  -24.7046 C.3     1  UNL1        0.4525
     37 F         -16.1534   -9.0200  -26.0309 F       1  UNL1       -0.1633
     38 F         -14.9503   -8.5134  -24.2733 F       1  UNL1       -0.1633
     39 F         -16.4193  -10.0963  -24.1647 F       1  UNL1       -0.1633
     40 H         -21.7667   -6.1565  -22.8602 H       1  UNL1        0.0252
     41 H         -22.9467   -5.6659  -24.0663 H       1  UNL1        0.0252
     42 H         -21.8453   -6.9961  -24.3973 H       1  UNL1        0.0252
     43 H         -21.0869   -4.0617  -24.0306 H       1  UNL1        0.0592
     44 H         -21.3012   -3.7981  -26.1825 H       1  UNL1        0.1495
     45 H         -20.6682   -4.2704  -28.4965 H       1  UNL1        0.0599
     46 H         -23.0105   -3.7108  -27.7655 H       1  UNL1        0.0336
     47 H         -23.5733   -5.1957  -28.4885 H       1  UNL1        0.0336
     48 H         -22.4198   -1.7678  -29.1507 H       1  UNL1        0.0620
     49 H         -22.3697   -0.7150  -31.3702 H       1  UNL1        0.0618
     50 H         -22.8538   -2.0604  -33.3842 H       1  UNL1        0.0618
     51 H         -23.3917   -4.4451  -33.1977 H       1  UNL1        0.0618
     52 H         -23.4477   -5.5318  -30.9997 H       1  UNL1        0.0620
     53 H         -21.8545   -6.8182  -29.5432 H       1  UNL1        0.1528
     54 H         -18.3597   -6.9212  -32.1249 H       1  UNL1        0.0749
     55 H         -19.3244   -8.3263  -32.5093 H       1  UNL1        0.0749
     56 H         -16.6109   -8.8567  -32.3836 H       1  UNL1        0.0621
     57 H         -15.0947  -10.2520  -31.0192 H       1  UNL1        0.0618
     58 H         -15.6846  -10.7763  -28.6800 H       1  UNL1        0.0618
     59 H         -17.7891   -9.9438  -27.6960 H       1  UNL1        0.0618
     60 H         -19.2930   -8.5410  -29.0181 H       1  UNL1        0.0621
     61 H         -19.3477   -6.5220  -25.8154 H       1  UNL1        0.1494
     62 H         -17.1803   -6.8528  -26.1446 H       1  UNL1        0.0580
     63 H         -15.3480   -5.9561  -24.6069 H       1  UNL1        0.0292
     64 H         -16.5519   -5.1508  -23.6812 H       1  UNL1        0.0292
     65 H         -15.5483   -4.5379  -26.4771 H       1  UNL1        0.0359
     66 H         -15.5731   -3.5187  -25.0857 H       1  UNL1        0.0359
     67 H         -18.6085   -1.9869  -26.1046 H       1  UNL1        0.1449
     68 H         -17.1442   -1.9086  -25.1429 H       1  UNL1        0.1449
@<TRIPOS>BOND
     1     1     2    1
     2     1    40    1
     3     1    41    1
     4     1    42    1
     5     2     3    1
     6     2    25    1
     7     2    43    1
     8     3     4   am
     9     3    44    1
    10     4     5    2
    11     4     6    1
    12     6     7    1
    13     6    14    1
    14     6    45    1
    15     7     8    1
    16     7    46    1
    17     7    47    1
    18     8    13   ar
    19     8     9   ar
    20     9    10   ar
    21     9    48    1
    22    10    11   ar
    23    10    49    1
    24    11    12   ar
    25    11    50    1
    26    12    13   ar
    27    12    51    1
    28    13    52    1
    29    14    15   am
    30    14    53    1
    31    15    16    2
    32    15    17    1
    33    17    18    1
    34    18    19    1
    35    18    54    1
    36    18    55    1
    37    19    24   ar
    38    19    20   ar
    39    20    21   ar
    40    20    56    1
    41    21    22   ar
    42    21    57    1
    43    22    23   ar
    44    22    58    1
    45    23    24   ar
    46    23    59    1
    47    24    60    1
    48    25    26    2
    49    25    27   am
    50    27    28    1
    51    27    61    1
    52    28    29    1
    53    28    34    1
    54    28    62    1
    55    29    30    1
    56    29    63    1
    57    29    64    1
    58    30    31    1
    59    30    65    1
    60    30    66    1
    61    31    32   am
    62    31    33    2
    63    32    67    1
    64    32    68    1
    65    34    35    2
    66    34    36    1
    67    36    37    1
    68    36    38    1
    69    36    39    1
