@<TRIPOS>MOLECULE
*****
 71 74 0 0 0
SMALL
GASTEIGER
****
Schrodinger Suite 2019-4.
@<TRIPOS>ATOM
      1 C         -18.2139   -5.5025  -24.3671 C.3     1  UNL1       -0.0626
      2 C         -19.2318   -4.8949  -25.3472 C.3     1  UNL1       -0.0446
      3 C         -18.6880   -3.5895  -25.9546 C.3     1  UNL1       -0.0626
      4 C         -20.6420   -4.7299  -24.7205 C.3     1  UNL1       -0.0236
      5 C         -21.7647   -4.2315  -25.6699 C.3     1  UNL1        0.0997
      6 N         -23.0490   -4.2812  -24.9714 N.am    1  UNL1       -0.3012
      7 C         -23.8589   -3.2253  -24.7795 C.2     1  UNL1        0.2513
      8 O         -23.5237   -2.0631  -24.9842 O.2     1  UNL1       -0.2721
      9 C         -25.3136   -3.5097  -24.3800 C.3     1  UNL1        0.1652
     10 O         -26.1746   -3.3243  -25.5167 O.3     1  UNL1       -0.4828
     11 C         -25.9453   -4.0718  -26.6569 C.ar    1  UNL1        0.1214
     12 C         -26.1593   -3.4425  -27.8796 C.ar    1  UNL1       -0.0165
     13 C         -25.8598   -4.1120  -29.0594 C.ar    1  UNL1       -0.0167
     14 C         -25.3711   -5.4148  -29.0307 C.ar    1  UNL1        0.1171
     15 O         -25.0575   -6.0576  -30.1960 O.3     1  UNL1       -0.5068
     16 C         -25.2122   -6.0717  -27.8187 C.ar    1  UNL1       -0.0167
     17 C         -25.5005   -5.4047  -26.6316 C.ar    1  UNL1       -0.0165
     18 C         -21.8760   -5.0564  -26.9645 C.2     1  UNL1        0.2339
     19 O         -22.1447   -6.2579  -26.9124 O.2     1  UNL1       -0.2738
     20 N         -21.6171   -4.3881  -28.1043 N.am    1  UNL1       -0.3037
     21 C         -21.4079   -4.9512  -29.4566 C.3     1  UNL1        0.0888
     22 C         -21.1753   -3.7983  -30.4714 C.3     1  UNL1       -0.0160
     23 C         -22.2994   -2.8162  -30.8942 C.3     1  UNL1        0.0390
     24 C         -22.9688   -1.9336  -29.8574 C.3     1  UNL1       -0.0262
     25 C         -24.1989   -1.4481  -30.6069 C.3     1  UNL1        0.0123
     26 N         -24.4528   -2.5358  -31.5488 N.am    1  UNL1       -0.3151
     27 C         -23.4620   -3.4321  -31.6719 C.2     1  UNL1        0.2162
     28 O         -23.4974   -4.5198  -32.2390 O.2     1  UNL1       -0.2755
     29 C         -20.1142   -5.8023  -29.4721 C.2     1  UNL1        0.2079
     30 O         -19.2455   -5.6580  -28.6075 O.2     1  UNL1       -0.2879
     31 C         -19.8197   -6.6879  -30.6031 C.ar    1  UNL1        0.1465
     32 N         -18.6427   -7.1961  -30.8560 N.ar    1  UNL1       -0.2360
     33 C         -18.6271   -7.9334  -31.9945 C.ar    1  UNL1        0.0790
     34 C         -17.4979   -8.5758  -32.5230 C.ar    1  UNL1       -0.0352
     35 C         -17.6445   -9.3256  -33.6897 C.ar    1  UNL1       -0.0597
     36 C         -18.8802   -9.4278  -34.3258 C.ar    1  UNL1       -0.0606
     37 C         -20.0140   -8.7800  -33.8345 C.ar    1  UNL1       -0.0459
     38 C         -19.8774   -8.0335  -32.6568 C.ar    1  UNL1        0.0396
     39 S         -21.0708   -7.1104  -31.7547 S.2     1  UNL1       -0.0643
     40 H         -18.6748   -5.7905  -23.4262 H       1  UNL1        0.0232
     41 H         -17.7583   -6.4041  -24.7865 H       1  UNL1        0.0232
     42 H         -17.4039   -4.8094  -24.1315 H       1  UNL1        0.0232
     43 H         -19.3212   -5.6262  -26.1471 H       1  UNL1        0.0296
     44 H         -19.2989   -3.2524  -26.7895 H       1  UNL1        0.0232
     45 H         -18.6691   -2.7917  -25.2149 H       1  UNL1        0.0232
     46 H         -17.6710   -3.7175  -26.3309 H       1  UNL1        0.0232
     47 H         -20.5772   -4.0482  -23.8708 H       1  UNL1        0.0290
     48 H         -20.9352   -5.6994  -24.3060 H       1  UNL1        0.0290
     49 H         -21.5343   -3.2064  -25.9642 H       1  UNL1        0.0594
     50 H         -23.4104   -5.2120  -24.8206 H       1  UNL1        0.1496
     51 H         -25.6033   -2.7934  -23.6103 H       1  UNL1        0.0795
     52 H         -25.4375   -4.4945  -23.9285 H       1  UNL1        0.0795
     53 H         -26.5342   -2.4299  -27.9065 H       1  UNL1        0.0655
     54 H         -26.0608   -3.6284  -29.9966 H       1  UNL1        0.0655
     55 H         -24.9504   -5.4636  -30.9414 H       1  UNL1        0.2921
     56 H         -24.8500   -7.0878  -27.7972 H       1  UNL1        0.0655
     57 H         -25.3625   -5.9223  -25.6959 H       1  UNL1        0.0655
     58 H         -21.4161   -3.3996  -28.0280 H       1  UNL1        0.1495
     59 H         -22.2854   -5.5344  -29.7414 H       1  UNL1        0.0582
     60 H         -20.7414   -4.1782  -31.3996 H       1  UNL1        0.0295
     61 H         -20.4026   -3.2009  -30.0094 H       1  UNL1        0.0295
     62 H         -21.8042   -2.1730  -31.6246 H       1  UNL1        0.0395
     63 H         -22.3522   -1.1124  -29.4992 H       1  UNL1        0.0288
     64 H         -23.2758   -2.5119  -28.9846 H       1  UNL1        0.0288
     65 H         -24.0203   -0.5120  -31.1280 H       1  UNL1        0.0462
     66 H         -25.0361   -1.3134  -29.9254 H       1  UNL1        0.0462
     67 H         -25.2916   -2.5711  -32.1063 H       1  UNL1        0.1487
     68 H         -16.5386   -8.5045  -32.0298 H       1  UNL1        0.0639
     69 H         -16.7875   -9.8418  -34.1004 H       1  UNL1        0.0618
     70 H         -18.9521  -10.0155  -35.2318 H       1  UNL1        0.0618
     71 H         -20.9611   -8.8521  -34.3456 H       1  UNL1        0.0629
@<TRIPOS>BOND
     1     1     2    1
     2     1    40    1
     3     1    41    1
     4     1    42    1
     5     2     3    1
     6     2     4    1
     7     2    43    1
     8     3    44    1
     9     3    45    1
    10     3    46    1
    11     4     5    1
    12     4    47    1
    13     4    48    1
    14     5     6    1
    15     5    18    1
    16     5    49    1
    17     6     7   am
    18     6    50    1
    19     7     8    2
    20     7     9    1
    21     9    10    1
    22     9    51    1
    23     9    52    1
    24    10    11    1
    25    11    17   ar
    26    11    12   ar
    27    12    13   ar
    28    12    53    1
    29    13    14   ar
    30    13    54    1
    31    14    15    1
    32    14    16   ar
    33    15    55    1
    34    16    17   ar
    35    16    56    1
    36    17    57    1
    37    18    19    2
    38    18    20   am
    39    20    21    1
    40    20    58    1
    41    21    22    1
    42    21    29    1
    43    21    59    1
    44    22    23    1
    45    22    60    1
    46    22    61    1
    47    23    27    1
    48    23    24    1
    49    23    62    1
    50    24    25    1
    51    24    63    1
    52    24    64    1
    53    25    26    1
    54    25    65    1
    55    25    66    1
    56    26    27   am
    57    26    67    1
    58    27    28    2
    59    29    30    2
    60    29    31    1
    61    31    39   ar
    62    31    32   ar
    63    32    33   ar
    64    33    38   ar
    65    33    34   ar
    66    34    35   ar
    67    34    68    1
    68    35    36   ar
    69    35    69    1
    70    36    37   ar
    71    36    70    1
    72    37    38   ar
    73    37    71    1
    74    38    39   ar
