@<TRIPOS>MOLECULE
/home/lixiaoshuang.lxs/med/data/m_pro/PDB_BA/4wy3/4wy3_ligand.pdb
 35 39 0 0 0
SMALL
GASTEIGER

@<TRIPOS>ATOM
      1  O1       -21.0300  -44.7730    1.3920 O.2   401  3X5401     -0.2868
      2  C24      -20.5690  -43.6450    1.4530 C.2   401  3X5401      0.2248
      3  C23      -21.3940  -42.5090    2.0100 C.3   401  3X5401      0.1432
      4  C25      -20.4920  -41.5640    2.7940 C.3   401  3X5401      0.0728
      5  C26      -19.8000  -40.6210    1.8400 C.ar  401  3X5401      0.0817
      6  N3       -18.5780  -40.0730    2.0050 N.ar  401  3X5401     -0.2268
      7  C28      -18.3200  -39.2900    0.9340 C.ar  401  3X5401      0.1986
      8  N2       -19.3770  -39.3420    0.0950 N.ar  401  3X5401     -0.2212
      9  C27      -20.3050  -40.1600    0.6350 C.ar  401  3X5401      0.1154
     10  N1       -22.4360  -43.0500    2.9040 N.3   401  3X5401     -0.2094
     11  C22      -23.3880  -41.9820    3.2500 C.3   401  3X5401      0.1089
     12  C21      -24.7610  -42.5940    3.5290 C.3   401  3X5401      0.0930
     13  C20      -24.8730  -42.9890    5.0000 C.3   401  3X5401      0.0214
     14  C19      -24.7540  -41.7770    5.9130 C.3   401  3X5401      0.0033
     15  C18      -24.9510  -42.1890    7.3660 C.3   401  3X5401      0.0001
     16  C17      -24.8580  -40.9770    8.2860 C.3   401  3X5401      0.0000
     17  C16      -25.8460  -39.8910    7.8750 C.3   401  3X5401      0.0001
     18  C15      -25.6640  -39.4990    6.4120 C.3   401  3X5401      0.0017
     19  C14      -25.7730  -40.7230    5.5120 C.3   401  3X5401      0.0199
     20  C13      -25.5640  -40.3270    4.0570 C.3   401  3X5401      0.0936
     21  N        -25.7640  -41.5530    3.2900 N.am  401  3X5401     -0.2763
     22  C        -26.7520  -41.7760    2.4270 C.2   401  3X5401      0.2490
     23  O        -27.1490  -42.9030    2.1820 O.2   401  3X5401     -0.2699
     24  C1       -27.3910  -40.6050    1.7410 C.ar  401  3X5401      0.0536
     25  C12      -28.2890  -39.8000    2.4320 C.ar  401  3X5401      0.0045
     26  C11      -28.8810  -38.7150    1.7960 C.ar  401  3X5401      0.0001
     27  C4       -28.5750  -38.4350    0.4690 C.ar  401  3X5401      0.0000
     28  C3       -27.6770  -39.2410   -0.2220 C.ar  401  3X5401      0.0001
     29  C2       -27.0850  -40.3250    0.4140 C.ar  401  3X5401      0.0045
     30  C5       -29.2080  -37.2750   -0.2110 C.ar  401  3X5401      0.0000
     31  C10      -29.2600  -37.2260   -1.5990 C.ar  401  3X5401      0.0000
     32  C9       -29.8520  -36.1410   -2.2350 C.ar  401  3X5401      0.0000
     33  C8       -30.3930  -35.1050   -1.4830 C.ar  401  3X5401      0.0000
     34  C7       -30.3410  -35.1530   -0.0950 C.ar  401  3X5401      0.0000
     35  C6       -29.7490  -36.2380    0.5410 C.ar  401  3X5401      0.0000
@<TRIPOS>BOND
     1    32    31   ar
     2    32    33   ar
     3    31    30   ar
     4    33    34   ar
     5    28    29   ar
     6    28    27   ar
     7    30    27    1
     8    30    35   ar
     9    34    35   ar
    10     8     9   ar
    11     8     7   ar
    12    29    24   ar
    13    27    26   ar
    14     9     5   ar
    15     7     6   ar
    16     1     2    2
    17     2     3    1
    18    24    22    1
    19    24    25   ar
    20    26    25   ar
    21     5     6   ar
    22     5     4    1
    23     3     4    1
    24     3    10    1
    25    23    22    2
    26    22    21   am
    27    10    11    1
    28    11    12    1
    29    21    12    1
    30    21    20    1
    31    12    13    1
    32    20    19    1
    33    13    14    1
    34    19    14    1
    35    19    18    1
    36    14    15    1
    37    18    17    1
    38    15    16    1
    39    17    16    1
