@<TRIPOS>MOLECULE
*****
 74 78 0 0 0
SMALL
GASTEIGER
****
Schrodinger Suite 2019-4.
@<TRIPOS>ATOM
      1 C         -16.3515  -11.5475  -33.7544 C.3     1  UNL1        0.0788
      2 O         -17.7522  -11.7063  -33.8154 O.3     1  UNL1       -0.4950
      3 C         -18.5269  -10.7568  -33.1900 C.ar    1  UNL1        0.1221
      4 C         -19.9194  -10.9019  -33.3324 C.ar    1  UNL1       -0.0193
      5 C         -20.8092  -10.0121  -32.7053 C.ar    1  UNL1       -0.0491
      6 C         -20.3354   -8.9466  -31.9116 C.ar    1  UNL1        0.0006
      7 C         -20.9635   -7.9026  -31.1573 C.ar    1  UNL1       -0.0242
      8 C         -19.9605   -7.1674  -30.5783 C.ar    1  UNL1        0.1028
      9 N         -18.7459   -7.7189  -30.9516 N.ar    1  UNL1       -0.3505
     10 C         -18.9256   -8.8083  -31.7782 C.ar    1  UNL1        0.0505
     11 C         -18.0238   -9.6832  -32.4118 C.ar    1  UNL1        0.0040
     12 C         -19.9736   -5.9923  -29.6904 C.2     1  UNL1        0.2610
     13 O         -18.9443   -5.5721  -29.1648 O.2     1  UNL1       -0.2686
     14 N         -21.1722   -5.4201  -29.5139 N.am    1  UNL1       -0.2988
     15 C         -21.4387   -4.2808  -28.6381 C.3     1  UNL1        0.0999
     16 C         -22.8147   -3.6865  -28.9989 C.3     1  UNL1       -0.0236
     17 C         -22.9767   -3.2695  -30.4850 C.3     1  UNL1       -0.0446
     18 C         -22.2706   -1.9571  -30.8621 C.3     1  UNL1       -0.0626
     19 C         -24.4462   -3.1283  -30.8265 C.3     1  UNL1       -0.0626
     20 C         -21.4437   -4.7730  -27.1807 C.2     1  UNL1        0.2339
     21 O         -21.8430   -5.9107  -26.9250 O.2     1  UNL1       -0.2738
     22 N         -20.9750   -3.9409  -26.2342 N.am    1  UNL1       -0.3037
     23 C         -20.7008   -4.3504  -24.8490 C.3     1  UNL1        0.0888
     24 C         -19.1777   -4.2171  -24.5934 C.3     1  UNL1       -0.0160
     25 C         -18.3443   -5.2485  -25.3947 C.3     1  UNL1        0.0390
     26 C         -18.6647   -6.7148  -25.0581 C.3     1  UNL1       -0.0262
     27 C         -17.3212   -7.4533  -25.0329 C.3     1  UNL1        0.0123
     28 N         -16.3386   -6.3982  -24.9328 N.am    1  UNL1       -0.3151
     29 C         -16.8432   -5.1868  -25.1439 C.2     1  UNL1        0.2162
     30 O         -16.1878   -4.1535  -25.1816 O.2     1  UNL1       -0.2755
     31 C         -21.5712   -3.5707  -23.8352 C.2     1  UNL1        0.2079
     32 O         -21.1044   -3.0110  -22.8428 O.2     1  UNL1       -0.2879
     33 C         -23.0419   -3.5091  -24.0866 C.ar    1  UNL1        0.1465
     34 N         -23.8594   -2.4596  -23.8918 N.ar    1  UNL1       -0.2360
     35 C         -25.1520   -2.7847  -24.3160 C.ar    1  UNL1        0.0790
     36 C         -26.2900   -1.9477  -24.3796 C.ar    1  UNL1       -0.0352
     37 C         -27.5058   -2.4245  -24.9130 C.ar    1  UNL1       -0.0597
     38 C         -27.6433   -3.7520  -25.3364 C.ar    1  UNL1       -0.0606
     39 C         -26.5439   -4.6130  -25.2556 C.ar    1  UNL1       -0.0459
     40 C         -25.3195   -4.1223  -24.7777 C.ar    1  UNL1        0.0396
     41 S         -23.8124   -4.9820  -24.6767 S.2     1  UNL1       -0.0643
     42 H         -15.8602  -12.3396  -34.3183 H       1  UNL1        0.0660
     43 H         -16.0976  -10.5989  -34.2157 H       1  UNL1        0.0660
     44 H         -15.9781  -11.5791  -32.7297 H       1  UNL1        0.0660
     45 H         -20.3131  -11.7170  -33.9220 H       1  UNL1        0.0654
     46 H         -21.8730  -10.1518  -32.8226 H       1  UNL1        0.0625
     47 H         -22.0268   -7.7437  -31.0755 H       1  UNL1        0.0646
     48 H         -17.8605   -7.3174  -30.6691 H       1  UNL1        0.1660
     49 H         -16.9648   -9.5273  -32.2677 H       1  UNL1        0.0675
     50 H         -21.9718   -5.8450  -29.9622 H       1  UNL1        0.1498
     51 H         -20.6683   -3.5281  -28.7744 H       1  UNL1        0.0595
     52 H         -23.0185   -2.8294  -28.3582 H       1  UNL1        0.0290
     53 H         -23.5831   -4.4210  -28.7493 H       1  UNL1        0.0290
     54 H         -22.5961   -4.0596  -31.1299 H       1  UNL1        0.0296
     55 H         -22.9623   -1.2075  -31.2452 H       1  UNL1        0.0232
     56 H         -21.7836   -1.4949  -30.0117 H       1  UNL1        0.0232
     57 H         -21.5339   -2.1257  -31.6463 H       1  UNL1        0.0232
     58 H         -24.5883   -2.9129  -31.8865 H       1  UNL1        0.0232
     59 H         -25.0064   -4.0340  -30.5901 H       1  UNL1        0.0232
     60 H         -24.8468   -2.2965  -30.2486 H       1  UNL1        0.0232
     61 H         -20.6900   -3.0108  -26.5093 H       1  UNL1        0.1495
     62 H         -20.9542   -5.3992  -24.7023 H       1  UNL1        0.0582
     63 H         -18.9699   -4.3480  -23.5326 H       1  UNL1        0.0295
     64 H         -18.8463   -3.2072  -24.8397 H       1  UNL1        0.0295
     65 H         -18.4797   -5.0861  -26.4641 H       1  UNL1        0.0395
     66 H         -19.3571   -7.1593  -25.7746 H       1  UNL1        0.0288
     67 H         -19.1263   -6.7854  -24.0744 H       1  UNL1        0.0288
     68 H         -17.1542   -8.0080  -25.9579 H       1  UNL1        0.0462
     69 H         -17.2478   -8.1456  -24.1931 H       1  UNL1        0.0462
     70 H         -15.3510   -6.5855  -24.8113 H       1  UNL1        0.1487
     71 H         -26.2321   -0.9235  -24.0516 H       1  UNL1        0.0639
     72 H         -28.3702   -1.7901  -24.9836 H       1  UNL1        0.0618
     73 H         -28.5881   -4.1029  -25.7260 H       1  UNL1        0.0618
     74 H         -26.6298   -5.6363  -25.5916 H       1  UNL1        0.0629
@<TRIPOS>BOND
     1     1     2    1
     2     1    42    1
     3     1    43    1
     4     1    44    1
     5     2     3    1
     6     3    11   ar
     7     3     4   ar
     8     4     5   ar
     9     4    45    1
    10     5     6   ar
    11     5    46    1
    12     6    10   ar
    13     6     7   ar
    14     7     8   ar
    15     7    47    1
    16     8     9   ar
    17     8    12    1
    18     9    10   ar
    19     9    48    1
    20    10    11   ar
    21    11    49    1
    22    12    13    2
    23    12    14   am
    24    14    15    1
    25    14    50    1
    26    15    16    1
    27    15    20    1
    28    15    51    1
    29    16    17    1
    30    16    52    1
    31    16    53    1
    32    17    18    1
    33    17    19    1
    34    17    54    1
    35    18    55    1
    36    18    56    1
    37    18    57    1
    38    19    58    1
    39    19    59    1
    40    19    60    1
    41    20    21    2
    42    20    22   am
    43    22    23    1
    44    22    61    1
    45    23    24    1
    46    23    31    1
    47    23    62    1
    48    24    25    1
    49    24    63    1
    50    24    64    1
    51    25    29    1
    52    25    26    1
    53    25    65    1
    54    26    27    1
    55    26    66    1
    56    26    67    1
    57    27    28    1
    58    27    68    1
    59    27    69    1
    60    28    29   am
    61    28    70    1
    62    29    30    2
    63    31    32    2
    64    31    33    1
    65    33    41   ar
    66    33    34   ar
    67    34    35   ar
    68    35    40   ar
    69    35    36   ar
    70    36    37   ar
    71    36    71    1
    72    37    38   ar
    73    37    72    1
    74    38    39   ar
    75    38    73    1
    76    39    40   ar
    77    39    74    1
    78    40    41   ar
