@<TRIPOS>MOLECULE
*****
 67 72 0 0 0
SMALL
GASTEIGER
****
Schrodinger Suite 2019-4.
@<TRIPOS>ATOM
      1 C         -20.4235   -8.8492  -27.8017 C.3     1  UNL1        0.0788
      2 O         -21.4309   -9.1839  -26.8525 O.3     1  UNL1       -0.4951
      3 C         -22.7064   -8.6810  -27.0176 C.ar    1  UNL1        0.1201
      4 C         -23.6190   -8.9551  -26.0015 C.ar    1  UNL1       -0.0193
      5 C         -24.9211   -8.4657  -26.0625 C.ar    1  UNL1       -0.0476
      6 C         -25.3453   -7.6912  -27.1507 C.ar    1  UNL1        0.0176
      7 C         -26.7166   -7.1051  -27.1956 C.ar    1  UNL1        0.1393
      8 C         -27.7489   -7.3981  -26.3778 C.ar    1  UNL1        0.0288
      9 C         -29.0057   -6.6679  -26.4310 C.ar    1  UNL1        0.1966
     10 O         -30.0032   -7.0183  -25.8044 O.2     1  UNL1       -0.2869
     11 C         -28.9263   -5.4095  -27.2453 C.ar    1  UNL1        0.1061
     12 C         -29.8777   -4.3840  -27.1751 C.ar    1  UNL1        0.1347
     13 O         -30.9680   -4.4280  -26.3511 O.3     1  UNL1       -0.5058
     14 C         -29.7159   -3.2335  -27.9287 C.ar    1  UNL1        0.0229
     15 C         -28.6526   -3.0960  -28.8105 C.ar    1  UNL1        0.1317
     16 O         -28.5680   -1.9531  -29.5507 O.3     1  UNL1       -0.5059
     17 C         -27.6810   -4.0883  -28.9231 C.ar    1  UNL1        0.0702
     18 C         -26.4582   -3.8911  -29.7743 C.ar    1  UNL1        0.0315
     19 C         -25.2291   -4.0645  -29.1484 C.ar    1  UNL1       -0.0396
     20 C         -24.0111   -3.9273  -29.8095 C.ar    1  UNL1        0.0182
     21 C         -22.7809   -4.1806  -29.0339 C.ar    1  UNL1        0.1392
     22 C         -21.5999   -4.6261  -29.5025 C.ar    1  UNL1        0.0288
     23 C         -20.4720   -4.8524  -28.6131 C.ar    1  UNL1        0.1966
     24 O         -19.3680   -5.2281  -29.0027 O.2     1  UNL1       -0.2869
     25 C         -20.7574   -4.5863  -27.1660 C.ar    1  UNL1        0.1055
     26 C         -19.8251   -4.7665  -26.1350 C.ar    1  UNL1        0.1347
     27 O         -18.5680   -5.2385  -26.3883 O.3     1  UNL1       -0.5058
     28 C         -20.1601   -4.4667  -24.8137 C.ar    1  UNL1        0.0225
     29 C         -21.4381   -4.0280  -24.4748 C.ar    1  UNL1        0.1271
     30 O         -21.6785   -3.7205  -23.1510 O.3     1  UNL1       -0.4949
     31 C         -22.9793   -3.2732  -22.7692 C.3     1  UNL1        0.0788
     32 C         -22.3808   -3.8758  -25.4924 C.ar    1  UNL1        0.0233
     33 C         -22.0239   -4.1225  -26.8083 C.ar    1  UNL1        0.1462
     34 O         -22.9971   -3.8635  -27.7335 O.2     1  UNL1       -0.4544
     35 C         -24.0287   -3.5926  -31.1653 C.ar    1  UNL1       -0.0476
     36 C         -25.2443   -3.3607  -31.8118 C.ar    1  UNL1       -0.0187
     37 C         -26.4670   -3.4936  -31.1278 C.ar    1  UNL1        0.1280
     38 O         -27.6844   -3.2280  -31.7257 O.3     1  UNL1       -0.4945
     39 C         -27.7271   -2.3597  -32.8556 C.3     1  UNL1        0.0788
     40 C         -27.8316   -5.2275  -28.1076 C.ar    1  UNL1        0.1541
     41 O         -26.8039   -6.1470  -28.1501 O.2     1  UNL1       -0.4537
     42 C         -24.4284   -7.4462  -28.1855 C.ar    1  UNL1       -0.0476
     43 C         -23.1244   -7.9273  -28.1221 C.ar    1  UNL1       -0.0193
     44 H         -19.4803   -9.3063  -27.5024 H       1  UNL1        0.0660
     45 H         -20.6688   -9.2203  -28.7981 H       1  UNL1        0.0660
     46 H         -20.2637   -7.7715  -27.8492 H       1  UNL1        0.0660
     47 H         -23.3022   -9.5328  -25.1460 H       1  UNL1        0.0654
     48 H         -25.5830   -8.6783  -25.2373 H       1  UNL1        0.0626
     49 H         -27.6550   -8.1730  -25.6360 H       1  UNL1        0.0693
     50 H         -31.5624   -3.6813  -26.4765 H       1  UNL1        0.2922
     51 H         -30.4249   -2.4281  -27.8298 H       1  UNL1        0.0691
     52 H         -28.0141   -2.1099  -30.3229 H       1  UNL1        0.2922
     53 H         -25.2282   -4.3247  -28.0996 H       1  UNL1        0.0632
     54 H         -21.4927   -4.8570  -30.5511 H       1  UNL1        0.0693
     55 H         -18.4657   -5.4525  -27.3230 H       1  UNL1        0.2922
     56 H         -19.4200   -4.5803  -24.0358 H       1  UNL1        0.0691
     57 H         -22.9688   -2.9349  -21.7342 H       1  UNL1        0.0660
     58 H         -23.3231   -2.4281  -23.3661 H       1  UNL1        0.0660
     59 H         -23.7080   -4.0807  -22.8513 H       1  UNL1        0.0660
     60 H         -23.3828   -3.5330  -25.2986 H       1  UNL1        0.0691
     61 H         -23.1046   -3.4874  -31.7156 H       1  UNL1        0.0626
     62 H         -25.2237   -3.0792  -32.8527 H       1  UNL1        0.0654
     63 H         -28.7529   -2.0283  -33.0163 H       1  UNL1        0.0660
     64 H         -27.1144   -1.4757  -32.6953 H       1  UNL1        0.0660
     65 H         -27.3843   -2.8280  -33.7740 H       1  UNL1        0.0660
     66 H         -24.7121   -6.8651  -29.0511 H       1  UNL1        0.0626
     67 H         -22.4542   -7.6991  -28.9375 H       1  UNL1        0.0654
@<TRIPOS>BOND
     1     1     2    1
     2     1    44    1
     3     1    45    1
     4     1    46    1
     5     2     3    1
     6     3    43   ar
     7     3     4   ar
     8     4     5   ar
     9     4    47    1
    10     5     6   ar
    11     5    48    1
    12     6     7    1
    13     6    42   ar
    14     7    41   ar
    15     7     8   ar
    16     8     9   ar
    17     8    49    1
    18     9    10    2
    19     9    11   ar
    20    11    40   ar
    21    11    12   ar
    22    12    13    1
    23    12    14   ar
    24    13    50    1
    25    14    15   ar
    26    14    51    1
    27    15    16    1
    28    15    17   ar
    29    16    52    1
    30    17    18    1
    31    17    40   ar
    32    18    37   ar
    33    18    19   ar
    34    19    20   ar
    35    19    53    1
    36    20    21    1
    37    20    35   ar
    38    21    34   ar
    39    21    22   ar
    40    22    23   ar
    41    22    54    1
    42    23    24    2
    43    23    25   ar
    44    25    33   ar
    45    25    26   ar
    46    26    27    1
    47    26    28   ar
    48    27    55    1
    49    28    29   ar
    50    28    56    1
    51    29    30    1
    52    29    32   ar
    53    30    31    1
    54    31    57    1
    55    31    58    1
    56    31    59    1
    57    32    33   ar
    58    32    60    1
    59    33    34   ar
    60    35    36   ar
    61    35    61    1
    62    36    37   ar
    63    36    62    1
    64    37    38    1
    65    38    39    1
    66    39    63    1
    67    39    64    1
    68    39    65    1
    69    40    41   ar
    70    42    43   ar
    71    42    66    1
    72    43    67    1
