
                    3D
 Schrodinger Suite 2019-4.
 67 72  0  0  1  0            999 V2000
  -20.4235   -8.8492  -27.8017 C   0  0  0  0  0  0
  -21.4309   -9.1839  -26.8525 O   0  0  0  0  0  0
  -22.7064   -8.6810  -27.0176 C   0  0  0  0  0  0
  -23.6190   -8.9551  -26.0015 C   0  0  0  0  0  0
  -24.9211   -8.4657  -26.0625 C   0  0  0  0  0  0
  -25.3453   -7.6912  -27.1507 C   0  0  0  0  0  0
  -26.7166   -7.1051  -27.1956 C   0  0  0  0  0  0
  -27.7489   -7.3981  -26.3778 C   0  0  0  0  0  0
  -29.0057   -6.6679  -26.4310 C   0  0  0  0  0  0
  -30.0032   -7.0183  -25.8044 O   0  0  0  0  0  0
  -28.9263   -5.4095  -27.2453 C   0  0  0  0  0  0
  -29.8777   -4.3840  -27.1751 C   0  0  0  0  0  0
  -30.9680   -4.4280  -26.3511 O   0  0  0  0  0  0
  -29.7159   -3.2335  -27.9287 C   0  0  0  0  0  0
  -28.6526   -3.0960  -28.8105 C   0  0  0  0  0  0
  -28.5680   -1.9531  -29.5507 O   0  0  0  0  0  0
  -27.6810   -4.0883  -28.9231 C   0  0  0  0  0  0
  -26.4582   -3.8911  -29.7743 C   0  0  0  0  0  0
  -25.2291   -4.0645  -29.1484 C   0  0  0  0  0  0
  -24.0111   -3.9273  -29.8095 C   0  0  0  0  0  0
  -22.7809   -4.1806  -29.0339 C   0  0  0  0  0  0
  -21.5999   -4.6261  -29.5025 C   0  0  0  0  0  0
  -20.4720   -4.8524  -28.6131 C   0  0  0  0  0  0
  -19.3680   -5.2281  -29.0027 O   0  0  0  0  0  0
  -20.7574   -4.5863  -27.1660 C   0  0  0  0  0  0
  -19.8251   -4.7665  -26.1350 C   0  0  0  0  0  0
  -18.5680   -5.2385  -26.3883 O   0  0  0  0  0  0
  -20.1601   -4.4667  -24.8137 C   0  0  0  0  0  0
  -21.4381   -4.0280  -24.4748 C   0  0  0  0  0  0
  -21.6785   -3.7205  -23.1510 O   0  0  0  0  0  0
  -22.9793   -3.2732  -22.7692 C   0  0  0  0  0  0
  -22.3808   -3.8758  -25.4924 C   0  0  0  0  0  0
  -22.0239   -4.1225  -26.8083 C   0  0  0  0  0  0
  -22.9971   -3.8635  -27.7335 O   0  0  0  0  0  0
  -24.0287   -3.5926  -31.1653 C   0  0  0  0  0  0
  -25.2443   -3.3607  -31.8118 C   0  0  0  0  0  0
  -26.4670   -3.4936  -31.1278 C   0  0  0  0  0  0
  -27.6844   -3.2280  -31.7257 O   0  0  0  0  0  0
  -27.7271   -2.3597  -32.8556 C   0  0  0  0  0  0
  -27.8316   -5.2275  -28.1076 C   0  0  0  0  0  0
  -26.8039   -6.1470  -28.1501 O   0  0  0  0  0  0
  -24.4284   -7.4462  -28.1855 C   0  0  0  0  0  0
  -23.1244   -7.9273  -28.1221 C   0  0  0  0  0  0
  -19.4803   -9.3063  -27.5024 H   0  0  0  0  0  0
  -20.6688   -9.2203  -28.7981 H   0  0  0  0  0  0
  -20.2637   -7.7715  -27.8492 H   0  0  0  0  0  0
  -23.3022   -9.5328  -25.1460 H   0  0  0  0  0  0
  -25.5830   -8.6783  -25.2373 H   0  0  0  0  0  0
  -27.6550   -8.1730  -25.6360 H   0  0  0  0  0  0
  -31.5624   -3.6813  -26.4765 H   0  0  0  0  0  0
  -30.4249   -2.4281  -27.8298 H   0  0  0  0  0  0
  -28.0141   -2.1099  -30.3229 H   0  0  0  0  0  0
  -25.2282   -4.3247  -28.0996 H   0  0  0  0  0  0
  -21.4927   -4.8570  -30.5511 H   0  0  0  0  0  0
  -18.4657   -5.4525  -27.3230 H   0  0  0  0  0  0
  -19.4200   -4.5803  -24.0358 H   0  0  0  0  0  0
  -22.9688   -2.9349  -21.7342 H   0  0  0  0  0  0
  -23.3231   -2.4281  -23.3661 H   0  0  0  0  0  0
  -23.7080   -4.0807  -22.8513 H   0  0  0  0  0  0
  -23.3828   -3.5330  -25.2986 H   0  0  0  0  0  0
  -23.1046   -3.4874  -31.7156 H   0  0  0  0  0  0
  -25.2237   -3.0792  -32.8527 H   0  0  0  0  0  0
  -28.7529   -2.0283  -33.0163 H   0  0  0  0  0  0
  -27.1144   -1.4757  -32.6953 H   0  0  0  0  0  0
  -27.3843   -2.8280  -33.7740 H   0  0  0  0  0  0
  -24.7121   -6.8651  -29.0511 H   0  0  0  0  0  0
  -22.4542   -7.6991  -28.9375 H   0  0  0  0  0  0
  1  2  1  0  0  0
  1 44  1  0  0  0
  1 45  1  0  0  0
  1 46  1  0  0  0
  2  3  1  0  0  0
  3 43  1  0  0  0
  3  4  2  0  0  0
  4  5  1  0  0  0
  4 47  1  0  0  0
  5  6  2  0  0  0
  5 48  1  0  0  0
  6  7  1  0  0  0
  6 42  1  0  0  0
  7 41  1  0  0  0
  7  8  2  0  0  0
  8  9  1  0  0  0
  8 49  1  0  0  0
  9 10  2  0  0  0
  9 11  1  0  0  0
 11 40  2  0  0  0
 11 12  1  0  0  0
 12 13  1  0  0  0
 12 14  2  0  0  0
 13 50  1  0  0  0
 14 15  1  0  0  0
 14 51  1  0  0  0
 15 16  1  0  0  0
 15 17  2  0  0  0
 16 52  1  0  0  0
 17 18  1  0  0  0
 17 40  1  0  0  0
 18 37  1  0  0  0
 18 19  2  0  0  0
 19 20  1  0  0  0
 19 53  1  0  0  0
 20 21  1  0  0  0
 20 35  2  0  0  0
 21 34  1  0  0  0
 21 22  2  0  0  0
 22 23  1  0  0  0
 22 54  1  0  0  0
 23 24  2  0  0  0
 23 25  1  0  0  0
 25 33  2  0  0  0
 25 26  1  0  0  0
 26 27  1  0  0  0
 26 28  2  0  0  0
 27 55  1  0  0  0
 28 29  1  0  0  0
 28 56  1  0  0  0
 29 30  1  0  0  0
 29 32  2  0  0  0
 30 31  1  0  0  0
 31 57  1  0  0  0
 31 58  1  0  0  0
 31 59  1  0  0  0
 32 33  1  0  0  0
 32 60  1  0  0  0
 33 34  1  0  0  0
 35 36  1  0  0  0
 35 61  1  0  0  0
 36 37  2  0  0  0
 36 62  1  0  0  0
 37 38  1  0  0  0
 38 39  1  0  0  0
 39 63  1  0  0  0
 39 64  1  0  0  0
 39 65  1  0  0  0
 40 41  1  0  0  0
 42 43  2  0  0  0
 42 66  1  0  0  0
 43 67  1  0  0  0
M  END
$$$$
