@<TRIPOS>MOLECULE
*****
 68 72 0 0 0
SMALL
GASTEIGER
****
Schrodinger Suite 2019-4.
@<TRIPOS>ATOM
      1 C         -23.0595   -2.0556  -30.4208 C.3     1  UNL1       -0.0626
      2 C         -23.2795   -3.5633  -30.2406 C.3     1  UNL1       -0.0446
      3 C         -24.6876   -3.9554  -30.6663 C.3     1  UNL1       -0.0626
      4 C         -23.0160   -4.0332  -28.7934 C.3     1  UNL1       -0.0236
      5 C         -21.5543   -4.4300  -28.5214 C.3     1  UNL1        0.1000
      6 N         -21.1979   -5.5388  -29.4091 N.am    1  UNL1       -0.2983
      7 C         -19.9530   -6.0025  -29.5886 C.2     1  UNL1        0.2698
      8 O         -18.9681   -5.5020  -29.0511 O.2     1  UNL1       -0.2679
      9 C         -19.8102   -7.1798  -30.4899 C.ar    1  UNL1        0.1639
     10 N         -18.6336   -7.7117  -30.8364 N.ar    1  UNL1       -0.2344
     11 C         -18.8141   -8.7462  -31.7431 C.ar    1  UNL1        0.0791
     12 C         -17.8015   -9.4958  -32.3837 C.ar    1  UNL1       -0.0352
     13 C         -18.1254  -10.5304  -33.2835 C.ar    1  UNL1       -0.0597
     14 C         -19.4728  -10.8386  -33.5530 C.ar    1  UNL1       -0.0606
     15 C         -20.4997  -10.1034  -32.9332 C.ar    1  UNL1       -0.0459
     16 C         -20.1699   -9.0619  -32.0479 C.ar    1  UNL1        0.0397
     17 S         -21.2404   -7.9716  -31.1750 S.2     1  UNL1       -0.0627
     18 C         -21.4322   -4.9005  -27.0667 C.2     1  UNL1        0.2339
     19 O         -21.7362   -6.0592  -26.7777 O.2     1  UNL1       -0.2738
     20 N         -20.9889   -4.0178  -26.1567 N.am    1  UNL1       -0.3037
     21 C         -20.6801   -4.3752  -24.7668 C.3     1  UNL1        0.0888
     22 C         -19.1538   -4.2235  -24.5477 C.3     1  UNL1       -0.0160
     23 C         -18.3296   -5.2568  -25.3567 C.3     1  UNL1        0.0390
     24 C         -18.6421   -6.7236  -25.0159 C.3     1  UNL1       -0.0262
     25 C         -17.2980   -7.4597  -25.0189 C.3     1  UNL1        0.0123
     26 N         -16.3166   -6.4032  -24.9278 N.am    1  UNL1       -0.3151
     27 C         -16.8260   -5.1923  -25.1274 C.2     1  UNL1        0.2162
     28 O         -16.1723   -4.1583  -25.1737 O.2     1  UNL1       -0.2755
     29 C         -21.5477   -3.5743  -23.7686 C.2     1  UNL1        0.2079
     30 O         -21.0764   -2.9880  -22.7959 O.2     1  UNL1       -0.2879
     31 C         -23.0216   -3.5276  -24.0079 C.ar    1  UNL1        0.1465
     32 N         -23.8465   -2.4880  -23.7956 N.ar    1  UNL1       -0.2360
     33 C         -25.1398   -2.8217  -24.2112 C.ar    1  UNL1        0.0790
     34 C         -26.2825   -1.9902  -24.2663 C.ar    1  UNL1       -0.0352
     35 C         -27.4975   -2.4692  -24.7997 C.ar    1  UNL1       -0.0597
     36 C         -27.6310   -3.8004  -25.2146 C.ar    1  UNL1       -0.0606
     37 C         -26.5285   -4.6581  -25.1383 C.ar    1  UNL1       -0.0459
     38 C         -25.3016   -4.1592  -24.6752 C.ar    1  UNL1        0.0396
     39 S         -23.7844   -5.0032  -24.6040 S.2     1  UNL1       -0.0643
     40 H         -22.0450   -1.7667  -30.1586 H       1  UNL1        0.0232
     41 H         -23.2278   -1.7570  -31.4552 H       1  UNL1        0.0232
     42 H         -23.7384   -1.4757  -29.7969 H       1  UNL1        0.0232
     43 H         -22.6054   -4.0700  -30.9306 H       1  UNL1        0.0296
     44 H         -24.8086   -5.0357  -30.7134 H       1  UNL1        0.0232
     45 H         -25.4189   -3.5748  -29.9582 H       1  UNL1        0.0232
     46 H         -24.8988   -3.5676  -31.6611 H       1  UNL1        0.0232
     47 H         -23.6501   -4.8941  -28.5720 H       1  UNL1        0.0290
     48 H         -23.3330   -3.2606  -28.0908 H       1  UNL1        0.0290
     49 H         -20.8953   -3.5810  -28.7007 H       1  UNL1        0.0595
     50 H         -21.9595   -6.0210  -29.8657 H       1  UNL1        0.1498
     51 H         -16.7648   -9.2713  -32.1771 H       1  UNL1        0.0639
     52 H         -17.3362  -11.0922  -33.7630 H       1  UNL1        0.0618
     53 H         -19.7160  -11.6376  -34.2377 H       1  UNL1        0.0618
     54 H         -21.5349  -10.3303  -33.1404 H       1  UNL1        0.0629
     55 H         -20.7720   -3.0774  -26.4577 H       1  UNL1        0.1495
     56 H         -20.9205   -5.4199  -24.5737 H       1  UNL1        0.0582
     57 H         -18.9246   -4.3370  -23.4907 H       1  UNL1        0.0295
     58 H         -18.8357   -3.2152  -24.8144 H       1  UNL1        0.0295
     59 H         -18.4787   -5.0959  -26.4245 H       1  UNL1        0.0395
     60 H         -19.3480   -7.1695  -25.7180 H       1  UNL1        0.0288
     61 H         -19.0825   -6.7956  -24.0234 H       1  UNL1        0.0288
     62 H         -17.1461   -8.0062  -25.9509 H       1  UNL1        0.0462
     63 H         -17.2091   -8.1581  -24.1864 H       1  UNL1        0.0462
     64 H         -15.3267   -6.5889  -24.8231 H       1  UNL1        0.1487
     65 H         -26.2275   -0.9665  -23.9377 H       1  UNL1        0.0639
     66 H         -28.3615   -1.8330  -24.8740 H       1  UNL1        0.0618
     67 H         -28.5784   -4.1540  -25.5954 H       1  UNL1        0.0618
     68 H         -26.6121   -5.6822  -25.4725 H       1  UNL1        0.0629
@<TRIPOS>BOND
     1     1     2    1
     2     1    40    1
     3     1    41    1
     4     1    42    1
     5     2     3    1
     6     2     4    1
     7     2    43    1
     8     3    44    1
     9     3    45    1
    10     3    46    1
    11     4     5    1
    12     4    47    1
    13     4    48    1
    14     5     6    1
    15     5    18    1
    16     5    49    1
    17     6     7   am
    18     6    50    1
    19     7     8    2
    20     7     9    1
    21     9    17   ar
    22     9    10   ar
    23    10    11   ar
    24    11    16   ar
    25    11    12   ar
    26    12    13   ar
    27    12    51    1
    28    13    14   ar
    29    13    52    1
    30    14    15   ar
    31    14    53    1
    32    15    16   ar
    33    15    54    1
    34    16    17   ar
    35    18    19    2
    36    18    20   am
    37    20    21    1
    38    20    55    1
    39    21    22    1
    40    21    29    1
    41    21    56    1
    42    22    23    1
    43    22    57    1
    44    22    58    1
    45    23    27    1
    46    23    24    1
    47    23    59    1
    48    24    25    1
    49    24    60    1
    50    24    61    1
    51    25    26    1
    52    25    62    1
    53    25    63    1
    54    26    27   am
    55    26    64    1
    56    27    28    2
    57    29    30    2
    58    29    31    1
    59    31    39   ar
    60    31    32   ar
    61    32    33   ar
    62    33    38   ar
    63    33    34   ar
    64    34    35   ar
    65    34    65    1
    66    35    36   ar
    67    35    66    1
    68    36    37   ar
    69    36    67    1
    70    37    38   ar
    71    37    68    1
    72    38    39   ar
