
                    3D
 Schrodinger Suite 2019-4.
 68 72  0  0  1  0            999 V2000
  -23.0595   -2.0556  -30.4208 C   0  0  0  0  0  0
  -23.2795   -3.5633  -30.2406 C   0  0  0  0  0  0
  -24.6876   -3.9554  -30.6663 C   0  0  0  0  0  0
  -23.0160   -4.0332  -28.7934 C   0  0  0  0  0  0
  -21.5543   -4.4300  -28.5214 C   0  0  2  0  0  0
  -21.1979   -5.5388  -29.4091 N   0  0  0  0  0  0
  -19.9530   -6.0025  -29.5886 C   0  0  0  0  0  0
  -18.9681   -5.5020  -29.0511 O   0  0  0  0  0  0
  -19.8102   -7.1798  -30.4899 C   0  0  0  0  0  0
  -18.6336   -7.7117  -30.8364 N   0  0  0  0  0  0
  -18.8141   -8.7462  -31.7431 C   0  0  0  0  0  0
  -17.8015   -9.4958  -32.3837 C   0  0  0  0  0  0
  -18.1254  -10.5304  -33.2835 C   0  0  0  0  0  0
  -19.4728  -10.8386  -33.5530 C   0  0  0  0  0  0
  -20.4997  -10.1034  -32.9332 C   0  0  0  0  0  0
  -20.1699   -9.0619  -32.0479 C   0  0  0  0  0  0
  -21.2404   -7.9716  -31.1750 S   0  0  0  0  0  0
  -21.4322   -4.9005  -27.0667 C   0  0  0  0  0  0
  -21.7362   -6.0592  -26.7777 O   0  0  0  0  0  0
  -20.9889   -4.0178  -26.1567 N   0  0  0  0  0  0
  -20.6801   -4.3752  -24.7668 C   0  0  1  0  0  0
  -19.1538   -4.2235  -24.5477 C   0  0  0  0  0  0
  -18.3296   -5.2568  -25.3567 C   0  0  2  0  0  0
  -18.6421   -6.7236  -25.0159 C   0  0  0  0  0  0
  -17.2980   -7.4597  -25.0189 C   0  0  0  0  0  0
  -16.3166   -6.4032  -24.9278 N   0  0  0  0  0  0
  -16.8260   -5.1923  -25.1274 C   0  0  0  0  0  0
  -16.1723   -4.1583  -25.1737 O   0  0  0  0  0  0
  -21.5477   -3.5743  -23.7686 C   0  0  0  0  0  0
  -21.0764   -2.9880  -22.7959 O   0  0  0  0  0  0
  -23.0216   -3.5276  -24.0079 C   0  0  0  0  0  0
  -23.8465   -2.4880  -23.7956 N   0  0  0  0  0  0
  -25.1398   -2.8217  -24.2112 C   0  0  0  0  0  0
  -26.2825   -1.9902  -24.2663 C   0  0  0  0  0  0
  -27.4975   -2.4692  -24.7997 C   0  0  0  0  0  0
  -27.6310   -3.8004  -25.2146 C   0  0  0  0  0  0
  -26.5285   -4.6581  -25.1383 C   0  0  0  0  0  0
  -25.3016   -4.1592  -24.6752 C   0  0  0  0  0  0
  -23.7844   -5.0032  -24.6040 S   0  0  0  0  0  0
  -22.0450   -1.7667  -30.1586 H   0  0  0  0  0  0
  -23.2278   -1.7570  -31.4552 H   0  0  0  0  0  0
  -23.7384   -1.4757  -29.7969 H   0  0  0  0  0  0
  -22.6054   -4.0700  -30.9306 H   0  0  0  0  0  0
  -24.8086   -5.0357  -30.7134 H   0  0  0  0  0  0
  -25.4189   -3.5748  -29.9582 H   0  0  0  0  0  0
  -24.8988   -3.5676  -31.6611 H   0  0  0  0  0  0
  -23.6501   -4.8941  -28.5720 H   0  0  0  0  0  0
  -23.3330   -3.2606  -28.0908 H   0  0  0  0  0  0
  -20.8953   -3.5810  -28.7007 H   0  0  0  0  0  0
  -21.9595   -6.0210  -29.8657 H   0  0  0  0  0  0
  -16.7648   -9.2713  -32.1771 H   0  0  0  0  0  0
  -17.3362  -11.0922  -33.7630 H   0  0  0  0  0  0
  -19.7160  -11.6376  -34.2377 H   0  0  0  0  0  0
  -21.5349  -10.3303  -33.1404 H   0  0  0  0  0  0
  -20.7720   -3.0774  -26.4577 H   0  0  0  0  0  0
  -20.9205   -5.4199  -24.5737 H   0  0  0  0  0  0
  -18.9246   -4.3370  -23.4907 H   0  0  0  0  0  0
  -18.8357   -3.2152  -24.8144 H   0  0  0  0  0  0
  -18.4787   -5.0959  -26.4245 H   0  0  0  0  0  0
  -19.3480   -7.1695  -25.7180 H   0  0  0  0  0  0
  -19.0825   -6.7956  -24.0234 H   0  0  0  0  0  0
  -17.1461   -8.0062  -25.9509 H   0  0  0  0  0  0
  -17.2091   -8.1581  -24.1864 H   0  0  0  0  0  0
  -15.3267   -6.5889  -24.8231 H   0  0  0  0  0  0
  -26.2275   -0.9665  -23.9377 H   0  0  0  0  0  0
  -28.3615   -1.8330  -24.8740 H   0  0  0  0  0  0
  -28.5784   -4.1540  -25.5954 H   0  0  0  0  0  0
  -26.6121   -5.6822  -25.4725 H   0  0  0  0  0  0
  1  2  1  0  0  0
  1 40  1  0  0  0
  1 41  1  0  0  0
  1 42  1  0  0  0
  2  3  1  0  0  0
  2  4  1  0  0  0
  2 43  1  0  0  0
  3 44  1  0  0  0
  3 45  1  0  0  0
  3 46  1  0  0  0
  4  5  1  0  0  0
  4 47  1  0  0  0
  4 48  1  0  0  0
  5  6  1  0  0  0
  5 18  1  0  0  0
  5 49  1  0  0  0
  6  7  1  0  0  0
  6 50  1  0  0  0
  7  8  2  0  0  0
  7  9  1  0  0  0
  9 17  1  0  0  0
  9 10  2  0  0  0
 10 11  1  0  0  0
 11 16  1  0  0  0
 11 12  2  0  0  0
 12 13  1  0  0  0
 12 51  1  0  0  0
 13 14  2  0  0  0
 13 52  1  0  0  0
 14 15  1  0  0  0
 14 53  1  0  0  0
 15 16  2  0  0  0
 15 54  1  0  0  0
 16 17  1  0  0  0
 18 19  2  0  0  0
 18 20  1  0  0  0
 20 21  1  0  0  0
 20 55  1  0  0  0
 21 22  1  0  0  0
 21 29  1  0  0  0
 21 56  1  0  0  0
 22 23  1  0  0  0
 22 57  1  0  0  0
 22 58  1  0  0  0
 23 27  1  0  0  0
 23 24  1  0  0  0
 23 59  1  0  0  0
 24 25  1  0  0  0
 24 60  1  0  0  0
 24 61  1  0  0  0
 25 26  1  0  0  0
 25 62  1  0  0  0
 25 63  1  0  0  0
 26 27  1  0  0  0
 26 64  1  0  0  0
 27 28  2  0  0  0
 29 30  2  0  0  0
 29 31  1  0  0  0
 31 39  1  0  0  0
 31 32  2  0  0  0
 32 33  1  0  0  0
 33 38  2  0  0  0
 33 34  1  0  0  0
 34 35  2  0  0  0
 34 65  1  0  0  0
 35 36  1  0  0  0
 35 66  1  0  0  0
 36 37  2  0  0  0
 36 67  1  0  0  0
 37 38  1  0  0  0
 37 68  1  0  0  0
 38 39  1  0  0  0
M  END
$$$$
