@<TRIPOS>MOLECULE
/home/lixiaoshuang.lxs/med/data/m_pro/PDB_BA/2hob/2hob_ligand.pdb
 49 51 0 0 0
SMALL
GASTEIGER

@<TRIPOS>ATOM
      1  C4         0.2280   -9.7530  107.8000 C.ar    1  02J1        0.0627
      2  C5        -0.0330   -8.4530  108.1650 C.ar    1  02J1        0.1550
      3  C6        -0.4980   -7.3570  107.2390 C.3     1  02J1        0.0754
      4  O1         0.1880   -8.2880  109.4960 O.2     1  02J1       -0.3576
      5  N2         0.6530   -9.6070  109.9890 N.ar    1  02J1       -0.0726
      6  C3         0.6670  -10.5700  109.2020 C.ar    1  02J1        0.1774
      7  C41        1.9130  -11.5160  108.9050 C.2     1  02J1        0.2862
      8  O42        2.4720  -11.8300  107.8030 O.2     1  02J1       -0.2666
      9  N          1.9400  -12.3320  110.0110 N.am    2  ALA2       -0.1926
     10  CA         2.5870  -13.6670  110.0360 C.3     2  ALA2        0.1732
     11  C          1.9520  -14.5840  108.9940 C.2     2  ALA2        0.2616
     12  O          0.7180  -14.6670  108.9110 O.2     2  ALA2       -0.2715
     13  CB         2.4560  -14.3370  111.4210 C.3     2  ALA2        0.0334
     14  N          3.2200  -14.9890  108.1440 N.am    3  VAL3       -0.1963
     15  CA         2.9070  -15.9860  107.1330 C.3     3  VAL3        0.1727
     16  C          3.6910  -17.2490  107.4470 C.2     3  VAL3        0.2616
     17  O          4.9210  -17.2150  107.5630 O.2     3  VAL3       -0.2715
     18  CB         3.2340  -15.4410  105.7050 C.3     3  VAL3        0.0290
     19  CG1        2.9150  -16.4460  104.6250 C.3     3  VAL3        0.0023
     20  CG2        2.4350  -14.1560  105.4470 C.3     3  VAL3        0.0023
     21  N          2.9780  -18.3650  107.5800 N.am    4  LEU4       -0.1963
     22  CA         3.6140  -19.6400  107.8710 C.3     4  LEU4        0.1728
     23  C          4.3500  -20.1020  106.6190 C.2     4  LEU4        0.2612
     24  O          3.7160  -20.1980  105.5520 O.2     4  LEU4       -0.2715
     25  CB         2.5160  -20.6330  108.2780 C.3     4  LEU4        0.0311
     26  CG         2.3550  -21.0870  109.7450 C.3     4  LEU4        0.0022
     27  CD1        2.7690  -20.0230  110.7630 C.3     4  LEU4        0.0001
     28  CD2        0.8840  -21.4830  109.9620 C.3     4  LEU4        0.0001
     29  C19        6.4320  -20.8310  105.5770 C.3     5  PJE5        0.0964
     30  C20        6.9230  -22.2750  105.6200 C.3     5  PJE5        0.0333
     31  C21        5.6880  -22.8090  104.8740 C.3     5  PJE5        0.1113
     32  C22        6.0400  -24.1120  104.1880 C.2     5  PJE5        0.3174
     33  C25        7.8980  -20.1870  105.1080 C.3     5  PJE5        0.0309
     34  C26        7.6540  -18.7310  104.6630 C.3     5  PJE5        0.0817
     35  C27        7.1630  -18.5590  103.2070 C.3     5  PJE5        0.0326
     36  C28        7.7740  -17.2400  102.6890 C.3     5  PJE5        0.1156
     37  N6         8.8980  -17.0440  103.5950 N.am    5  PJE5       -0.2054
     38  C29        8.8630  -17.8360  104.6860 C.2     5  PJE5        0.2410
     39  O8         9.6950  -17.7670  105.5900 O.2     5  PJE5       -0.2734
     40  N5         5.6690  -20.3740  106.7520 N.am    5  PJE5       -0.2057
     41  O7         7.0100  -24.8500  104.1000 O.2     5  PJE5       -0.2501
     42  C          4.3700  -25.4360  102.9740 C.3     6  0106        0.2350
     43  O          4.8260  -24.2830  103.6470 O.3     6  0106       -0.4435
     44  C1         2.0890  -24.4520  103.6450 C.ar    6  0106       -0.0007
     45  C2         0.6780  -24.3090  103.5350 C.ar    6  0106       -0.0002
     46  C3        -0.0470  -25.0790  102.5690 C.ar    6  0106       -0.0000
     47  C4         0.6620  -26.0070  101.6840 C.ar    6  0106       -0.0002
     48  C5         2.1190  -26.1500  101.8020 C.ar    6  0106       -0.0007
     49  C6         2.8510  -25.3490  102.8070 C.ar    6  0106        0.0213
@<TRIPOS>BOND
     1    47    48   ar
     2    47    46   ar
     3    48    49   ar
     4    46    45   ar
     5    36    35    1
     6    36    37    1
     7    49    42    1
     8    49    44   ar
     9    42    43    1
    10    35    34    1
    11    45    44   ar
    12    37    38   am
    13    43    32    1
    14    41    32    2
    15    32    31    1
    16    19    18    1
    17    34    38    1
    18    34    33    1
    19    38    39    2
    20    31    30    1
    21    33    29    1
    22    20    18    1
    23    24    23    2
    24    29    30    1
    25    29    40    1
    26    18    15    1
    27    23    40   am
    28    23    22    1
    29    15    16    1
    30    15    14    1
    31     3     2    1
    32    16    17    2
    33    16    21   am
    34    21    22    1
    35     1     2   ar
    36     1     6   ar
    37     8     7    2
    38    22    25    1
    39    14    11   am
    40     2     4   ar
    41    25    26    1
    42     7     6    1
    43     7     9   am
    44    12    11    2
    45    11    10    1
    46     6     5   ar
    47     4     5   ar
    48    26    28    1
    49    26    27    1
    50     9    10    1
    51    10    13    1
