@<TRIPOS>MOLECULE
*****
 95 96 0 0 0
SMALL
GASTEIGER
****
Schrodinger Suite 2019-4.
@<TRIPOS>ATOM
      1 C         -26.2238   -2.1495  -22.3574 C.3     1  UNL1       -0.0306
      2 C         -24.7572   -1.8306  -22.2609 C.3     1  UNL1        0.0900
      3 O         -24.0267   -2.7744  -22.9747 O.3     1  UNL1       -0.4618
      4 C         -22.7160   -2.7048  -22.9298 C.2     1  UNL1        0.3317
      5 O         -22.0595   -2.0794  -22.0950 O.2     1  UNL1       -0.2456
      6 C         -22.1687   -3.4335  -24.0579 C.2     1  UNL1        0.0203
      7 C         -20.8512   -3.5775  -24.1992 C.2     1  UNL1       -0.0572
      8 C         -20.2153   -4.3030  -25.3531 C.3     1  UNL1        0.0427
      9 C         -18.6904   -4.1594  -25.2798 C.3     1  UNL1       -0.0197
     10 C         -17.9536   -5.3235  -25.9470 C.3     1  UNL1        0.0389
     11 C         -18.3117   -6.7010  -25.3680 C.3     1  UNL1       -0.0262
     12 C         -17.0004   -7.4896  -25.3295 C.3     1  UNL1        0.0123
     13 N         -15.9861   -6.4612  -25.3589 N.am    1  UNL1       -0.3151
     14 C         -16.4607   -5.2637  -25.6873 C.2     1  UNL1        0.2162
     15 O         -15.8019   -4.2331  -25.7741 O.2     1  UNL1       -0.2755
     16 N         -20.7027   -3.8547  -26.6635 N.am    1  UNL1       -0.3075
     17 C         -21.5423   -4.5423  -27.4555 C.2     1  UNL1        0.2338
     18 O         -22.1711   -5.5298  -27.0705 O.2     1  UNL1       -0.2738
     19 C         -21.6217   -4.1013  -28.9288 C.3     1  UNL1        0.0996
     20 C         -23.0389   -3.5934  -29.2829 C.3     1  UNL1       -0.0236
     21 C         -23.2730   -3.3204  -30.7940 C.3     1  UNL1       -0.0446
     22 C         -22.2628   -2.3493  -31.4183 C.3     1  UNL1       -0.0626
     23 C         -24.6914   -2.8149  -31.0361 C.3     1  UNL1       -0.0626
     24 N         -21.3214   -5.2733  -29.7467 N.am    1  UNL1       -0.3024
     25 C         -20.0822   -5.6511  -30.0873 C.2     1  UNL1        0.2366
     26 O         -19.0862   -5.0178  -29.7534 O.2     1  UNL1       -0.2737
     27 C         -19.9404   -6.9195  -30.9285 C.3     1  UNL1        0.1282
     28 N         -19.3181   -6.5868  -32.2115 N.am    1  UNL1       -0.2673
     29 C         -19.8962   -6.8969  -33.4312 C.2     1  UNL1        0.4013
     30 O         -21.0174   -7.3766  -33.5940 O.2     1  UNL1       -0.2265
     31 O         -19.0713   -6.5584  -34.4319 O.3     1  UNL1       -0.4456
     32 C         -19.5411   -6.6787  -35.7725 C.3     1  UNL1        0.1191
     33 C         -19.4098   -8.0761  -36.3503 C.ar    1  UNL1       -0.0103
     34 C         -20.5739   -8.8399  -36.5626 C.ar    1  UNL1       -0.0554
     35 C         -20.4915  -10.1173  -37.1456 C.ar    1  UNL1       -0.0614
     36 C         -19.2378  -10.6420  -37.5157 C.ar    1  UNL1       -0.0617
     37 C         -18.0695   -9.8886  -37.2939 C.ar    1  UNL1       -0.0614
     38 C         -18.1544   -8.6102  -36.7097 C.ar    1  UNL1       -0.0554
     39 C         -19.2254   -8.1233  -30.2407 C.3     1  UNL1        0.0834
     40 C         -17.9630   -7.7810  -29.4236 C.3     1  UNL1       -0.0364
     41 O         -18.9432   -9.0429  -31.2994 O.3     1  UNL1       -0.3689
     42 C         -18.4240  -10.3545  -31.0830 C.3     1  UNL1        0.0616
     43 C         -18.8706  -11.0943  -32.3530 C.3     1  UNL1       -0.0363
     44 C         -19.0219  -11.0586  -29.8511 C.3     1  UNL1       -0.0363
     45 C         -16.8811  -10.3308  -31.0415 C.3     1  UNL1       -0.0363
     46 H         -26.8181   -1.4257  -21.8024 H       1  UNL1        0.0262
     47 H         -26.5231   -2.1033  -23.4035 H       1  UNL1        0.0262
     48 H         -26.4423   -3.1447  -21.9723 H       1  UNL1        0.0262
     49 H         -24.4255   -1.7887  -21.2262 H       1  UNL1        0.0695
     50 H         -24.5834   -0.8844  -22.7588 H       1  UNL1        0.0695
     51 H         -22.8500   -3.8550  -24.7837 H       1  UNL1        0.0686
     52 H         -20.1840   -3.1553  -23.4598 H       1  UNL1        0.0593
     53 H         -20.4931   -5.3456  -25.1943 H       1  UNL1        0.0543
     54 H         -18.3676   -4.1224  -24.2373 H       1  UNL1        0.0293
     55 H         -18.3841   -3.2092  -25.7198 H       1  UNL1        0.0293
     56 H         -18.1105   -5.3111  -27.0258 H       1  UNL1        0.0395
     57 H         -19.0838   -7.1880  -25.9562 H       1  UNL1        0.0288
     58 H         -18.6937   -6.6037  -24.3510 H       1  UNL1        0.0288
     59 H         -16.8865   -8.1257  -26.2088 H       1  UNL1        0.0462
     60 H         -16.9148   -8.1077  -24.4360 H       1  UNL1        0.0462
     61 H         -15.0074   -6.6504  -25.1798 H       1  UNL1        0.1487
     62 H         -20.2628   -3.0328  -27.0539 H       1  UNL1        0.1493
     63 H         -20.8976   -3.3105  -29.1175 H       1  UNL1        0.0594
     64 H         -23.2330   -2.6774  -28.7206 H       1  UNL1        0.0290
     65 H         -23.7838   -4.3151  -28.9406 H       1  UNL1        0.0290
     66 H         -23.1894   -4.2656  -31.3320 H       1  UNL1        0.0296
     67 H         -22.5669   -2.0550  -32.4237 H       1  UNL1        0.0232
     68 H         -22.1449   -1.4422  -30.8238 H       1  UNL1        0.0232
     69 H         -21.2945   -2.8349  -31.5220 H       1  UNL1        0.0232
     70 H         -24.9075   -2.7150  -32.1012 H       1  UNL1        0.0232
     71 H         -25.3894   -3.5283  -30.6148 H       1  UNL1        0.0232
     72 H         -24.8651   -1.8491  -30.5594 H       1  UNL1        0.0232
     73 H         -22.1011   -5.8463  -30.0345 H       1  UNL1        0.1495
     74 H         -20.9572   -7.2657  -31.1233 H       1  UNL1        0.0622
     75 H         -18.3833   -6.1980  -32.2223 H       1  UNL1        0.1529
     76 H         -18.9973   -5.9901  -36.4079 H       1  UNL1        0.0749
     77 H         -20.5814   -6.3611  -35.8378 H       1  UNL1        0.0749
     78 H         -21.5358   -8.4370  -36.2865 H       1  UNL1        0.0621
     79 H         -21.3906  -10.6917  -37.3118 H       1  UNL1        0.0618
     80 H         -19.1737  -11.6190  -37.9713 H       1  UNL1        0.0618
     81 H         -17.1051  -10.2874  -37.5732 H       1  UNL1        0.0618
     82 H         -17.2451   -8.0561  -36.5559 H       1  UNL1        0.0621
     83 H         -19.9494   -8.5754  -29.5636 H       1  UNL1        0.0617
     84 H         -17.5993   -8.6373  -28.8631 H       1  UNL1        0.0255
     85 H         -17.1603   -7.4359  -30.0685 H       1  UNL1        0.0255
     86 H         -18.1545   -7.0296  -28.6619 H       1  UNL1        0.0255
     87 H         -18.5230  -12.1287  -32.3631 H       1  UNL1        0.0257
     88 H         -19.9581  -11.1097  -32.4390 H       1  UNL1        0.0257
     89 H         -18.4827  -10.6075  -33.2496 H       1  UNL1        0.0257
     90 H         -18.7919  -12.1246  -29.8677 H       1  UNL1        0.0257
     91 H         -18.6083  -10.6669  -28.9262 H       1  UNL1        0.0257
     92 H         -20.1070  -10.9550  -29.8129 H       1  UNL1        0.0257
     93 H         -16.4814  -11.3426  -31.1104 H       1  UNL1        0.0257
     94 H         -16.4774   -9.7607  -31.8791 H       1  UNL1        0.0257
     95 H         -16.4692   -9.9052  -30.1310 H       1  UNL1        0.0257
@<TRIPOS>BOND
     1     1     2    1
     2     1    46    1
     3     1    47    1
     4     1    48    1
     5     2     3    1
     6     2    49    1
     7     2    50    1
     8     3     4    1
     9     4     5    2
    10     4     6    1
    11     6     7    2
    12     6    51    1
    13     7     8    1
    14     7    52    1
    15     8     9    1
    16     8    16    1
    17     8    53    1
    18     9    10    1
    19     9    54    1
    20     9    55    1
    21    10    14    1
    22    10    11    1
    23    10    56    1
    24    11    12    1
    25    11    57    1
    26    11    58    1
    27    12    13    1
    28    12    59    1
    29    12    60    1
    30    13    14   am
    31    13    61    1
    32    14    15    2
    33    16    17   am
    34    16    62    1
    35    17    18    2
    36    17    19    1
    37    19    20    1
    38    19    24    1
    39    19    63    1
    40    20    21    1
    41    20    64    1
    42    20    65    1
    43    21    22    1
    44    21    23    1
    45    21    66    1
    46    22    67    1
    47    22    68    1
    48    22    69    1
    49    23    70    1
    50    23    71    1
    51    23    72    1
    52    24    25   am
    53    24    73    1
    54    25    26    2
    55    25    27    1
    56    27    28    1
    57    27    39    1
    58    27    74    1
    59    28    29   am
    60    28    75    1
    61    29    30    2
    62    29    31    1
    63    31    32    1
    64    32    33    1
    65    32    76    1
    66    32    77    1
    67    33    38   ar
    68    33    34   ar
    69    34    35   ar
    70    34    78    1
    71    35    36   ar
    72    35    79    1
    73    36    37   ar
    74    36    80    1
    75    37    38   ar
    76    37    81    1
    77    38    82    1
    78    39    40    1
    79    39    41    1
    80    39    83    1
    81    40    84    1
    82    40    85    1
    83    40    86    1
    84    41    42    1
    85    42    43    1
    86    42    44    1
    87    42    45    1
    88    43    87    1
    89    43    88    1
    90    43    89    1
    91    44    90    1
    92    44    91    1
    93    44    92    1
    94    45    93    1
    95    45    94    1
    96    45    95    1
