@<TRIPOS>MOLECULE
/home/lixiaoshuang.lxs/med/data/m_pro/PDB_BA/2gx4/2gx4_ligand.pdb
 43 45 0 0 0
SMALL
GASTEIGER

@<TRIPOS>ATOM
      1  C1        21.5000    5.9480   19.3940 C.ar  2001  NOL2001    -0.0007
      2  C2        20.1950    6.0620   18.8140 C.ar  2001  NOL2001     0.0213
      3  C3        19.4130    7.4100   18.9140 C.ar  2001  NOL2001    -0.0007
      4  C4        19.9920    8.5100   19.5720 C.ar  2001  NOL2001    -0.0002
      5  C5        21.4070    8.3870   20.2000 C.ar  2001  NOL2001    -0.0000
      6  C6        22.1270    7.1530   20.1120 C.ar  2001  NOL2001    -0.0002
      7  C13       19.5950    4.8460   18.1060 C.3   2001  NOL2001     0.2368
      8  O15       18.6020    4.2710   18.9710 O.3   2001  NOL2001    -0.4285
      9  C17       18.6480    3.4850   20.1600 C.2   2001  NOL2001     0.4219
     10  N19       17.7190    2.9440   20.9940 N.am  2001  NOL2001    -0.1585
     11  C21       17.9740    2.1500   22.2180 C.3   2001  NOL2001     0.2029
     12  C23       17.0500    1.0590   22.0180 C.2   2001  NOL2001     0.2642
     13  N25       17.9030    0.0510   22.0440 N.am  2001  NOL2001    -0.1963
     14  C27       17.3880   -1.3640   21.8880 C.3   2001  NOL2001     0.1728
     15  C29       16.7260   -1.9610   23.0800 C.2   2001  NOL2001     0.2612
     16  N31       15.7000   -2.9900   23.0080 N.am  2001  NOL2001    -0.2030
     17  C33       14.5570   -2.9170   23.7350 C.3   2001  NOL2001     0.1287
     18  C35       13.6450   -3.9600   23.6130 C.3   2001  NOL2001     0.2036
     19  O39       14.0880   -4.6710   24.8120 O.3   2001  NOL2001    -0.2185
     20  C41       13.7160   -1.5790   24.1280 C.3   2001  NOL2001     0.0335
     21  C43       13.7870   -0.1360   24.4680 C.3   2001  NOL2001     0.0818
     22  C45       14.4450    0.0020   25.8380 C.3   2001  NOL2001     0.0326
     23  C47       13.7200    1.1990   26.5080 C.3   2001  NOL2001     0.1156
     24  N49       12.4310    1.2500   25.8120 N.am  2001  NOL2001    -0.2054
     25  C51       12.4770    0.4970   24.6690 C.2   2001  NOL2001     0.2410
     26  O54       11.5010    0.3910   23.8990 O.2   2001  NOL2001    -0.2734
     27  O56       17.0470   -1.5350   24.2050 O.2   2001  NOL2001    -0.2715
     28  C58       18.4250   -2.4560   21.5220 C.3   2001  NOL2001     0.0311
     29  C60       19.3910   -2.3210   20.3580 C.3   2001  NOL2001     0.0022
     30  C62       18.6130   -2.0700   18.9940 C.3   2001  NOL2001     0.0001
     31  C63       19.6270   -1.9260   17.7990 C.3   2001  NOL2001     0.0000
     32  C64       20.5830   -3.2090   17.6930 C.3   2001  NOL2001     0.0000
     33  C65       21.3300   -3.5330   19.0550 C.3   2001  NOL2001     0.0000
     34  C66       20.3010   -3.6350   20.2690 C.3   2001  NOL2001     0.0001
     35  O73       15.8750    0.8940   21.8770 O.2   2001  NOL2001    -0.2714
     36  C75       17.5870    3.0990   23.3120 C.3   2001  NOL2001     0.1439
     37  C77       17.8130    2.4140   24.7190 C.3   2001  NOL2001     0.0344
     38  O79       18.3270    4.2910   23.6940 O.3   2001  NOL2001    -0.3587
     39  C81       17.7710    5.6850   23.8350 C.3   2001  NOL2001     0.0930
     40  C83       16.6360    5.8590   24.9200 C.3   2001  NOL2001     0.0296
     41  C85       17.2100    6.1800   22.4720 C.3   2001  NOL2001     0.0296
     42  C87       18.9250    6.5980   24.2430 C.3   2001  NOL2001     0.0296
     43  O89       19.8850    3.3070   20.4190 O.2   2001  NOL2001    -0.2245
@<TRIPOS>BOND
     1    32    31    1
     2    32    33    1
     3    31    30    1
     4     7     2    1
     5     7     8    1
     6     2     3   ar
     7     2     1   ar
     8     3     4   ar
     9     8     9    1
    10    30    29    1
    11    33    34    1
    12     1     6   ar
    13     4     5   ar
    14     6     5   ar
    15     9    43    2
    16     9    10   am
    17    34    29    1
    18    29    28    1
    19    10    11    1
    20    28    14    1
    21    35    12    2
    22    14    13    1
    23    14    15    1
    24    12    13   am
    25    12    11    1
    26    11    36    1
    27    41    39    1
    28    16    15   am
    29    16    17    1
    30    15    27    2
    31    36    38    1
    32    36    37    1
    33    18    17    1
    34    18    19    1
    35    38    39    1
    36    17    20    1
    37    39    42    1
    38    39    40    1
    39    26    25    2
    40    20    21    1
    41    21    25    1
    42    21    22    1
    43    25    24   am
    44    24    23    1
    45    22    23    1
