
                    3D
 Schrodinger Suite 2019-4.
 70 73  0  0  1  0            999 V2000
  -22.7413   -1.2165  -30.5930 C   0  0  0  0  0  0
  -23.2900   -2.6254  -30.8481 C   0  0  0  0  0  0
  -24.7693   -2.5305  -31.2236 C   0  0  0  0  0  0
  -23.1193   -3.5493  -29.6264 C   0  0  0  0  0  0
  -21.6824   -4.0497  -29.3735 C   0  0  2  0  0  0
  -21.3010   -5.0137  -30.4044 N   0  0  0  0  0  0
  -20.1179   -5.6446  -30.4809 C   0  0  0  0  0  0
  -19.1822   -5.4250  -29.7090 O   0  0  0  0  0  0
  -20.1086   -6.6057  -31.5640 C   0  0  0  0  0  0
  -19.1115   -7.5049  -31.6572 C   0  0  0  0  0  0
  -18.9627   -8.5237  -32.7026 C   0  0  0  0  0  0
  -20.0065   -8.8411  -33.6021 C   0  0  0  0  0  0
  -19.8082   -9.8010  -34.6120 C   0  0  0  0  0  0
  -18.5636  -10.4467  -34.7357 C   0  0  0  0  0  0
  -17.5160  -10.1296  -33.8506 C   0  0  0  0  0  0
  -17.7158   -9.1704  -32.8400 C   0  0  0  0  0  0
  -21.6110   -4.6809  -27.9808 C   0  0  0  0  0  0
  -22.2043   -5.7348  -27.7466 O   0  0  0  0  0  0
  -20.8928   -4.0218  -27.0647 N   0  0  0  0  0  0
  -20.8584   -4.3932  -25.6563 C   0  0  1  0  0  0
  -19.4121   -4.2149  -25.1328 C   0  0  0  0  0  0
  -18.4729   -5.2864  -25.7478 C   0  0  2  0  0  0
  -18.8075   -6.7256  -25.3256 C   0  0  0  0  0  0
  -17.4616   -7.4439  -25.1677 C   0  0  0  0  0  0
  -16.4990   -6.3709  -25.0578 N   0  0  0  0  0  0
  -17.0027   -5.1792  -25.3653 C   0  0  0  0  0  0
  -16.3655   -4.1349  -25.3902 O   0  0  0  0  0  0
  -21.8883   -3.5082  -24.9167 C   0  0  0  0  0  0
  -22.2434   -2.4215  -25.3609 O   0  0  0  0  0  0
  -22.6029   -4.0095  -23.7191 C   0  0  0  0  0  0
  -23.5046   -3.2948  -23.0301 N   0  0  0  0  0  0
  -24.2115   -4.1343  -22.1798 C   0  0  0  0  0  0
  -25.3326   -3.8021  -21.3920 C   0  0  0  0  0  0
  -25.9502   -4.7707  -20.5754 C   0  0  0  0  0  0
  -25.4577   -6.0830  -20.5183 C   0  0  0  0  0  0
  -24.3549   -6.4440  -21.3057 C   0  0  0  0  0  0
  -23.7544   -5.4836  -22.1343 C   0  0  0  0  0  0
  -22.4242   -5.7017  -23.2527 S   0  0  0  0  0  0
  -21.6635   -1.2109  -30.4789 H   0  0  0  0  0  0
  -22.9780   -0.5457  -31.4134 H   0  0  0  0  0  0
  -23.1704   -0.7852  -29.6918 H   0  0  0  0  0  0
  -22.7621   -3.0518  -31.7020 H   0  0  0  0  0  0
  -25.1496   -3.5065  -31.5198 H   0  0  0  0  0  0
  -25.3649   -2.1640  -30.3862 H   0  0  0  0  0  0
  -24.9277   -1.8551  -32.0627 H   0  0  0  0  0  0
  -23.7717   -4.4176  -29.7387 H   0  0  0  0  0  0
  -23.4913   -3.0234  -28.7444 H   0  0  0  0  0  0
  -20.9908   -3.2119  -29.4174 H   0  0  0  0  0  0
  -22.0129   -5.2609  -31.0753 H   0  0  0  0  0  0
  -20.9013   -6.5846  -32.2969 H   0  0  0  0  0  0
  -18.3360   -7.5087  -30.9044 H   0  0  0  0  0  0
  -20.9710   -8.3639  -33.5276 H   0  0  0  0  0  0
  -20.6109  -10.0392  -35.2941 H   0  0  0  0  0  0
  -18.4105  -11.1799  -35.5138 H   0  0  0  0  0  0
  -16.5571  -10.6163  -33.9508 H   0  0  0  0  0  0
  -16.9006   -8.9255  -32.1741 H   0  0  0  0  0  0
  -20.4445   -3.1553  -27.3312 H   0  0  0  0  0  0
  -21.1367   -5.4402  -25.5546 H   0  0  0  0  0  0
  -19.3925   -4.2920  -24.0445 H   0  0  0  0  0  0
  -19.0368   -3.2223  -25.3783 H   0  0  0  0  0  0
  -18.4973   -5.2197  -26.8368 H   0  0  0  0  0  0
  -19.4540   -7.2284  -26.0463 H   0  0  0  0  0  0
  -19.3281   -6.7182  -24.3675 H   0  0  0  0  0  0
  -17.2268   -8.0480  -26.0451 H   0  0  0  0  0  0
  -17.4399   -8.0863  -24.2867 H   0  0  0  0  0  0
  -15.5283   -6.5326  -24.8211 H   0  0  0  0  0  0
  -25.7230   -2.7956  -21.4250 H   0  0  0  0  0  0
  -26.8019   -4.5199  -19.9720 H   0  0  0  0  0  0
  -25.9363   -6.8144  -19.8841 H   0  0  0  0  0  0
  -23.9825   -7.4576  -21.2887 H   0  0  0  0  0  0
  1  2  1  0  0  0
  1 39  1  0  0  0
  1 40  1  0  0  0
  1 41  1  0  0  0
  2  3  1  0  0  0
  2  4  1  0  0  0
  2 42  1  0  0  0
  3 43  1  0  0  0
  3 44  1  0  0  0
  3 45  1  0  0  0
  4  5  1  0  0  0
  4 46  1  0  0  0
  4 47  1  0  0  0
  5  6  1  0  0  0
  5 17  1  0  0  0
  5 48  1  0  0  0
  6  7  1  0  0  0
  6 49  1  0  0  0
  7  8  2  0  0  0
  7  9  1  0  0  0
  9 10  2  0  0  0
  9 50  1  0  0  0
 10 11  1  0  0  0
 10 51  1  0  0  0
 11 16  1  0  0  0
 11 12  2  0  0  0
 12 13  1  0  0  0
 12 52  1  0  0  0
 13 14  2  0  0  0
 13 53  1  0  0  0
 14 15  1  0  0  0
 14 54  1  0  0  0
 15 16  2  0  0  0
 15 55  1  0  0  0
 16 56  1  0  0  0
 17 18  2  0  0  0
 17 19  1  0  0  0
 19 20  1  0  0  0
 19 57  1  0  0  0
 20 21  1  0  0  0
 20 28  1  0  0  0
 20 58  1  0  0  0
 21 22  1  0  0  0
 21 59  1  0  0  0
 21 60  1  0  0  0
 22 26  1  0  0  0
 22 23  1  0  0  0
 22 61  1  0  0  0
 23 24  1  0  0  0
 23 62  1  0  0  0
 23 63  1  0  0  0
 24 25  1  0  0  0
 24 64  1  0  0  0
 24 65  1  0  0  0
 25 26  1  0  0  0
 25 66  1  0  0  0
 26 27  2  0  0  0
 28 29  2  0  0  0
 28 30  1  0  0  0
 30 38  1  0  0  0
 30 31  2  0  0  0
 31 32  1  0  0  0
 32 37  2  0  0  0
 32 33  1  0  0  0
 33 34  2  0  0  0
 33 67  1  0  0  0
 34 35  1  0  0  0
 34 68  1  0  0  0
 35 36  2  0  0  0
 35 69  1  0  0  0
 36 37  1  0  0  0
 36 70  1  0  0  0
 37 38  1  0  0  0
M  END
$$$$
