@<TRIPOS>MOLECULE
*****
 70 73 0 0 0
SMALL
GASTEIGER
****
Schrodinger Suite 2019-4.
@<TRIPOS>ATOM
      1 C         -22.7413   -1.2165  -30.5930 C.3     1  UNL1       -0.0626
      2 C         -23.2900   -2.6254  -30.8481 C.3     1  UNL1       -0.0446
      3 C         -24.7693   -2.5305  -31.2236 C.3     1  UNL1       -0.0626
      4 C         -23.1193   -3.5493  -29.6264 C.3     1  UNL1       -0.0236
      5 C         -21.6824   -4.0497  -29.3735 C.3     1  UNL1        0.0999
      6 N         -21.3010   -5.0137  -30.4044 N.am    1  UNL1       -0.3005
      7 C         -20.1179   -5.6446  -30.4809 C.2     1  UNL1        0.2375
      8 O         -19.1822   -5.4250  -29.7090 O.2     1  UNL1       -0.2708
      9 C         -20.1086   -6.6057  -31.5640 C.2     1  UNL1        0.0007
     10 C         -19.1115   -7.5049  -31.6572 C.2     1  UNL1       -0.0497
     11 C         -18.9627   -8.5237  -32.7026 C.ar    1  UNL1       -0.0249
     12 C         -20.0065   -8.8411  -33.6021 C.ar    1  UNL1       -0.0546
     13 C         -19.8082   -9.8010  -34.6120 C.ar    1  UNL1       -0.0612
     14 C         -18.5636  -10.4467  -34.7357 C.ar    1  UNL1       -0.0617
     15 C         -17.5160  -10.1296  -33.8506 C.ar    1  UNL1       -0.0612
     16 C         -17.7158   -9.1704  -32.8400 C.ar    1  UNL1       -0.0546
     17 C         -21.6110   -4.6809  -27.9808 C.2     1  UNL1        0.2339
     18 O         -22.2043   -5.7348  -27.7466 O.2     1  UNL1       -0.2738
     19 N         -20.8928   -4.0218  -27.0647 N.am    1  UNL1       -0.3037
     20 C         -20.8584   -4.3932  -25.6563 C.3     1  UNL1        0.0888
     21 C         -19.4121   -4.2149  -25.1328 C.3     1  UNL1       -0.0160
     22 C         -18.4729   -5.2864  -25.7478 C.3     1  UNL1        0.0390
     23 C         -18.8075   -6.7256  -25.3256 C.3     1  UNL1       -0.0262
     24 C         -17.4616   -7.4439  -25.1677 C.3     1  UNL1        0.0123
     25 N         -16.4990   -6.3709  -25.0578 N.am    1  UNL1       -0.3151
     26 C         -17.0027   -5.1792  -25.3653 C.2     1  UNL1        0.2162
     27 O         -16.3655   -4.1349  -25.3902 O.2     1  UNL1       -0.2755
     28 C         -21.8883   -3.5082  -24.9167 C.2     1  UNL1        0.2079
     29 O         -22.2434   -2.4215  -25.3609 O.2     1  UNL1       -0.2879
     30 C         -22.6029   -4.0095  -23.7191 C.ar    1  UNL1        0.1465
     31 N         -23.5046   -3.2948  -23.0301 N.ar    1  UNL1       -0.2360
     32 C         -24.2115   -4.1343  -22.1798 C.ar    1  UNL1        0.0790
     33 C         -25.3326   -3.8021  -21.3920 C.ar    1  UNL1       -0.0352
     34 C         -25.9502   -4.7707  -20.5754 C.ar    1  UNL1       -0.0597
     35 C         -25.4577   -6.0830  -20.5183 C.ar    1  UNL1       -0.0606
     36 C         -24.3549   -6.4440  -21.3057 C.ar    1  UNL1       -0.0459
     37 C         -23.7544   -5.4836  -22.1343 C.ar    1  UNL1        0.0396
     38 S         -22.4242   -5.7017  -23.2527 S.2     1  UNL1       -0.0643
     39 H         -21.6635   -1.2109  -30.4789 H       1  UNL1        0.0232
     40 H         -22.9780   -0.5457  -31.4134 H       1  UNL1        0.0232
     41 H         -23.1704   -0.7852  -29.6918 H       1  UNL1        0.0232
     42 H         -22.7621   -3.0518  -31.7020 H       1  UNL1        0.0296
     43 H         -25.1496   -3.5065  -31.5198 H       1  UNL1        0.0232
     44 H         -25.3649   -2.1640  -30.3862 H       1  UNL1        0.0232
     45 H         -24.9277   -1.8551  -32.0627 H       1  UNL1        0.0232
     46 H         -23.7717   -4.4176  -29.7387 H       1  UNL1        0.0290
     47 H         -23.4913   -3.0234  -28.7444 H       1  UNL1        0.0290
     48 H         -20.9908   -3.2119  -29.4174 H       1  UNL1        0.0595
     49 H         -22.0129   -5.2609  -31.0753 H       1  UNL1        0.1498
     50 H         -20.9013   -6.5846  -32.2969 H       1  UNL1        0.0669
     51 H         -18.3360   -7.5087  -30.9044 H       1  UNL1        0.0625
     52 H         -20.9710   -8.3639  -33.5276 H       1  UNL1        0.0623
     53 H         -20.6109  -10.0392  -35.2941 H       1  UNL1        0.0618
     54 H         -18.4105  -11.1799  -35.5138 H       1  UNL1        0.0618
     55 H         -16.5571  -10.6163  -33.9508 H       1  UNL1        0.0618
     56 H         -16.9006   -8.9255  -32.1741 H       1  UNL1        0.0623
     57 H         -20.4445   -3.1553  -27.3312 H       1  UNL1        0.1495
     58 H         -21.1367   -5.4402  -25.5546 H       1  UNL1        0.0582
     59 H         -19.3925   -4.2920  -24.0445 H       1  UNL1        0.0295
     60 H         -19.0368   -3.2223  -25.3783 H       1  UNL1        0.0295
     61 H         -18.4973   -5.2197  -26.8368 H       1  UNL1        0.0395
     62 H         -19.4540   -7.2284  -26.0463 H       1  UNL1        0.0288
     63 H         -19.3281   -6.7182  -24.3675 H       1  UNL1        0.0288
     64 H         -17.2268   -8.0480  -26.0451 H       1  UNL1        0.0462
     65 H         -17.4399   -8.0863  -24.2867 H       1  UNL1        0.0462
     66 H         -15.5283   -6.5326  -24.8211 H       1  UNL1        0.1487
     67 H         -25.7230   -2.7956  -21.4250 H       1  UNL1        0.0639
     68 H         -26.8019   -4.5199  -19.9720 H       1  UNL1        0.0618
     69 H         -25.9363   -6.8144  -19.8841 H       1  UNL1        0.0618
     70 H         -23.9825   -7.4576  -21.2887 H       1  UNL1        0.0629
@<TRIPOS>BOND
     1     1     2    1
     2     1    39    1
     3     1    40    1
     4     1    41    1
     5     2     3    1
     6     2     4    1
     7     2    42    1
     8     3    43    1
     9     3    44    1
    10     3    45    1
    11     4     5    1
    12     4    46    1
    13     4    47    1
    14     5     6    1
    15     5    17    1
    16     5    48    1
    17     6     7   am
    18     6    49    1
    19     7     8    2
    20     7     9    1
    21     9    10    2
    22     9    50    1
    23    10    11    1
    24    10    51    1
    25    11    16   ar
    26    11    12   ar
    27    12    13   ar
    28    12    52    1
    29    13    14   ar
    30    13    53    1
    31    14    15   ar
    32    14    54    1
    33    15    16   ar
    34    15    55    1
    35    16    56    1
    36    17    18    2
    37    17    19   am
    38    19    20    1
    39    19    57    1
    40    20    21    1
    41    20    28    1
    42    20    58    1
    43    21    22    1
    44    21    59    1
    45    21    60    1
    46    22    26    1
    47    22    23    1
    48    22    61    1
    49    23    24    1
    50    23    62    1
    51    23    63    1
    52    24    25    1
    53    24    64    1
    54    24    65    1
    55    25    26   am
    56    25    66    1
    57    26    27    2
    58    28    29    2
    59    28    30    1
    60    30    38   ar
    61    30    31   ar
    62    31    32   ar
    63    32    37   ar
    64    32    33   ar
    65    33    34   ar
    66    33    67    1
    67    34    35   ar
    68    34    68    1
    69    35    36   ar
    70    35    69    1
    71    36    37   ar
    72    36    70    1
    73    37    38   ar
