@<TRIPOS>MOLECULE
*****
 130 133 0 0 0
SMALL
GASTEIGER
****
Schrodinger Suite 2019-4.
@<TRIPOS>ATOM
      1 C         -24.5089   -5.8207  -32.7015 C.3     1  UNL1       -0.0605
      2 C         -23.6164   -7.0596  -32.8976 C.3     1  UNL1       -0.0197
      3 C         -23.7145   -8.0628  -31.7348 C.3     1  UNL1       -0.0605
      4 C         -22.2115   -6.6510  -33.3292 C.3     1  UNL1        0.1017
      5 N         -21.3861   -7.7485  -33.8104 N.am    1  UNL1       -0.3022
      6 C         -20.8179   -7.7808  -35.0274 C.2     1  UNL1        0.2338
      7 O         -21.1750   -7.0579  -35.9563 O.2     1  UNL1       -0.2738
      8 C         -19.6215   -8.7188  -35.2200 C.3     1  UNL1        0.0997
      9 C         -18.6206   -8.2497  -36.2833 C.3     1  UNL1       -0.0380
     10 N         -18.9461   -9.0531  -33.9686 N.am    1  UNL1       -0.2701
     11 C         -18.0639   -8.2713  -33.2416 C.2     1  UNL1        0.4012
     12 O         -17.6953   -7.1219  -33.4930 O.2     1  UNL1       -0.2265
     13 O         -17.7105   -8.9903  -32.1800 O.3     1  UNL1       -0.4456
     14 C         -16.9835   -8.4143  -31.1175 C.3     1  UNL1        0.1191
     15 C         -17.0407   -9.2489  -29.8523 C.ar    1  UNL1       -0.0103
     16 C         -16.3203   -8.8141  -28.7292 C.ar    1  UNL1       -0.0554
     17 C         -16.4262   -9.4841  -27.4988 C.ar    1  UNL1       -0.0614
     18 C         -17.2680  -10.6040  -27.3838 C.ar    1  UNL1       -0.0617
     19 C         -17.9692  -11.0704  -28.5122 C.ar    1  UNL1       -0.0614
     20 C         -17.8420  -10.4083  -29.7492 C.ar    1  UNL1       -0.0554
     21 C         -21.5953   -6.0123  -32.1347 C.2     1  UNL1        0.2339
     22 O         -20.9261   -6.6524  -31.3201 O.2     1  UNL1       -0.2738
     23 N         -21.8630   -4.7084  -32.0673 N.am    1  UNL1       -0.3081
     24 C         -21.3349   -3.8599  -31.0588 C.3     1  UNL1        0.0555
     25 C         -22.0231   -2.4992  -31.0803 C.3     1  UNL1       -0.0067
     26 C         -23.4987   -2.5812  -30.7922 C.ar    1  UNL1       -0.0455
     27 C         -24.3497   -1.7243  -31.4938 C.ar    1  UNL1       -0.0585
     28 C         -25.7161   -1.6836  -31.2015 C.ar    1  UNL1       -0.0615
     29 C         -26.2146   -2.4801  -30.1614 C.ar    1  UNL1       -0.0617
     30 C         -25.3847   -3.3759  -29.4753 C.ar    1  UNL1       -0.0615
     31 C         -24.0275   -3.4435  -29.8094 C.ar    1  UNL1       -0.0585
     32 C         -19.8521   -3.7140  -31.2739 C.3     1  UNL1        0.1013
     33 O         -19.2077   -4.5557  -32.2549 O.3     1  UNL1       -0.3873
     34 C         -19.1780   -3.6227  -29.9204 C.3     1  UNL1        0.1013
     35 O         -17.9234   -3.8413  -30.3770 O.3     1  UNL1       -0.3873
     36 C         -19.3921   -4.5046  -28.6485 C.3     1  UNL1        0.0555
     37 C         -18.0505   -5.0275  -28.0639 C.3     1  UNL1       -0.0067
     38 C         -18.0325   -5.6108  -26.6751 C.ar    1  UNL1       -0.0455
     39 C         -17.4818   -4.8901  -25.5927 C.ar    1  UNL1       -0.0585
     40 C         -17.3863   -5.4993  -24.3303 C.ar    1  UNL1       -0.0615
     41 C         -17.8530   -6.8171  -24.1574 C.ar    1  UNL1       -0.0617
     42 C         -18.4205   -7.5227  -25.2305 C.ar    1  UNL1       -0.0615
     43 C         -18.5031   -6.9195  -26.4924 C.ar    1  UNL1       -0.0585
     44 N         -19.9923   -3.6306  -27.6545 N.am    1  UNL1       -0.3081
     45 C         -20.8124   -3.9871  -26.6702 C.2     1  UNL1        0.2339
     46 O         -21.1464   -5.1449  -26.4665 O.2     1  UNL1       -0.2738
     47 C         -21.3343   -2.8611  -25.7833 C.3     1  UNL1        0.1017
     48 N         -21.5296   -3.4077  -24.4754 N.am    1  UNL1       -0.3022
     49 C         -20.6385   -3.4981  -23.5001 C.2     1  UNL1        0.2338
     50 O         -19.5465   -2.9350  -23.4757 O.2     1  UNL1       -0.2738
     51 C         -21.0971   -4.4280  -22.4125 C.3     1  UNL1        0.0997
     52 C         -22.3980   -3.9567  -21.7142 C.3     1  UNL1       -0.0380
     53 N         -21.1583   -5.7747  -22.9771 N.am    1  UNL1       -0.2701
     54 C         -22.2404   -6.5389  -23.3667 C.2     1  UNL1        0.4012
     55 O         -23.4330   -6.2781  -23.2155 O.2     1  UNL1       -0.2265
     56 O         -21.7594   -7.6233  -23.9845 O.3     1  UNL1       -0.4456
     57 C         -22.6327   -8.5059  -24.6676 C.3     1  UNL1        0.1191
     58 C         -23.0852   -7.9182  -25.9867 C.ar    1  UNL1       -0.0103
     59 C         -24.4205   -7.5061  -26.1670 C.ar    1  UNL1       -0.0554
     60 C         -24.8134   -6.8951  -27.3724 C.ar    1  UNL1       -0.0614
     61 C         -23.8697   -6.6822  -28.3908 C.ar    1  UNL1       -0.0617
     62 C         -22.5378   -7.0871  -28.2090 C.ar    1  UNL1       -0.0614
     63 C         -22.1487   -7.7272  -27.0175 C.ar    1  UNL1       -0.0554
     64 C         -22.7240   -2.4011  -26.2603 C.3     1  UNL1       -0.0197
     65 C         -23.8416   -3.4640  -26.2216 C.3     1  UNL1       -0.0605
     66 C         -22.6207   -1.7410  -27.6332 C.3     1  UNL1       -0.0605
     67 H         -24.1825   -4.9608  -33.2794 H       1  UNL1        0.0233
     68 H         -25.5029   -6.0311  -33.0537 H       1  UNL1        0.0233
     69 H         -24.5574   -5.5137  -31.6581 H       1  UNL1        0.0233
     70 H         -23.9846   -7.5930  -33.7347 H       1  UNL1        0.0318
     71 H         -23.1686   -8.9800  -31.9562 H       1  UNL1        0.0233
     72 H         -23.3112   -7.6717  -30.8082 H       1  UNL1        0.0233
     73 H         -24.7506   -8.3402  -31.5384 H       1  UNL1        0.0233
     74 H         -22.2564   -5.8775  -34.0958 H       1  UNL1        0.0597
     75 H         -21.0310   -8.3807  -33.1076 H       1  UNL1        0.1495
     76 H         -20.0491   -9.6568  -35.5731 H       1  UNL1        0.0593
     77 H         -17.8123   -8.9737  -36.3795 H       1  UNL1        0.0252
     78 H         -19.1108   -8.1619  -37.2482 H       1  UNL1        0.0252
     79 H         -18.1787   -7.2808  -36.0545 H       1  UNL1        0.0252
     80 H         -19.1093   -9.9729  -33.5867 H       1  UNL1        0.1528
     81 H         -17.4234   -7.4489  -30.8714 H       1  UNL1        0.0749
     82 H         -15.9471   -8.2535  -31.4152 H       1  UNL1        0.0749
     83 H         -15.6874   -7.9546  -28.8207 H       1  UNL1        0.0621
     84 H         -15.8667   -9.1319  -26.6441 H       1  UNL1        0.0618
     85 H         -17.3628  -11.1142  -26.4369 H       1  UNL1        0.0618
     86 H         -18.6100  -11.9362  -28.4271 H       1  UNL1        0.0618
     87 H         -18.4061  -10.7732  -30.5949 H       1  UNL1        0.0621
     88 H         -22.4421   -4.2886  -32.7804 H       1  UNL1        0.1491
     89 H         -21.5277   -4.3493  -30.1082 H       1  UNL1        0.0528
     90 H         -21.8782   -2.0328  -32.0562 H       1  UNL1        0.0332
     91 H         -21.5634   -1.8167  -30.3673 H       1  UNL1        0.0332
     92 H         -23.9333   -1.0614  -32.2201 H       1  UNL1        0.0620
     93 H         -26.3633   -1.0014  -31.7261 H       1  UNL1        0.0618
     94 H         -27.2372   -2.3798  -29.8562 H       1  UNL1        0.0618
     95 H         -25.7810   -3.9857  -28.6764 H       1  UNL1        0.0618
     96 H         -23.3978   -4.1046  -29.2405 H       1  UNL1        0.0620
     97 H         -19.7053   -2.7397  -31.7380 H       1  UNL1        0.0638
     98 H         -19.6496   -4.4501  -33.0853 H       1  UNL1        0.2100
     99 H         -19.3609   -2.5932  -29.6621 H       1  UNL1        0.0638
    100 H         -17.9939   -4.4536  -31.1021 H       1  UNL1        0.2100
    101 H         -20.0344   -5.3603  -28.8632 H       1  UNL1        0.0528
    102 H         -17.3380   -4.2133  -28.0081 H       1  UNL1        0.0332
    103 H         -17.6617   -5.7833  -28.7457 H       1  UNL1        0.0332
    104 H         -17.1104   -3.8859  -25.7331 H       1  UNL1        0.0620
    105 H         -16.9415   -4.9602  -23.5081 H       1  UNL1        0.0618
    106 H         -17.7732   -7.3143  -23.2094 H       1  UNL1        0.0618
    107 H         -18.7753   -8.5322  -25.0887 H       1  UNL1        0.0618
    108 H         -18.9122   -7.4699  -27.3241 H       1  UNL1        0.0620
    109 H         -19.7682   -2.6457  -27.7310 H       1  UNL1        0.1491
    110 H         -20.6160   -2.0418  -25.7594 H       1  UNL1        0.0597
    111 H         -22.3846   -3.9300  -24.3497 H       1  UNL1        0.1495
    112 H         -20.2659   -4.4344  -21.7174 H       1  UNL1        0.0593
    113 H         -22.7672   -4.6857  -20.9945 H       1  UNL1        0.0252
    114 H         -22.2411   -3.0122  -21.1928 H       1  UNL1        0.0252
    115 H         -23.2060   -3.7880  -22.4261 H       1  UNL1        0.0252
    116 H         -20.2659   -6.1783  -23.2281 H       1  UNL1        0.1528
    117 H         -23.4898   -8.7613  -24.0436 H       1  UNL1        0.0749
    118 H         -22.0998   -9.4356  -24.8667 H       1  UNL1        0.0749
    119 H         -25.1409   -7.6362  -25.3728 H       1  UNL1        0.0621
    120 H         -25.8360   -6.5745  -27.5076 H       1  UNL1        0.0618
    121 H         -24.1746   -6.2028  -29.3074 H       1  UNL1        0.0618
    122 H         -21.8173   -6.8818  -28.9802 H       1  UNL1        0.0618
    123 H         -21.1218   -8.0260  -26.8721 H       1  UNL1        0.0621
    124 H         -23.0476   -1.6486  -25.5475 H       1  UNL1        0.0318
    125 H         -24.7966   -3.0231  -26.5050 H       1  UNL1        0.0233
    126 H         -23.6470   -4.2849  -26.9078 H       1  UNL1        0.0233
    127 H         -23.9774   -3.8861  -25.2260 H       1  UNL1        0.0233
    128 H         -22.0447   -0.8215  -27.5867 H       1  UNL1        0.0233
    129 H         -22.1309   -2.3827  -28.3488 H       1  UNL1        0.0233
    130 H         -23.5995   -1.5107  -28.0432 H       1  UNL1        0.0233
@<TRIPOS>BOND
     1     1     2    1
     2     1    67    1
     3     1    68    1
     4     1    69    1
     5     2     3    1
     6     2     4    1
     7     2    70    1
     8     3    71    1
     9     3    72    1
    10     3    73    1
    11     4     5    1
    12     4    21    1
    13     4    74    1
    14     5     6   am
    15     5    75    1
    16     6     7    2
    17     6     8    1
    18     8     9    1
    19     8    10    1
    20     8    76    1
    21     9    77    1
    22     9    78    1
    23     9    79    1
    24    10    11   am
    25    10    80    1
    26    11    12    2
    27    11    13    1
    28    13    14    1
    29    14    15    1
    30    14    81    1
    31    14    82    1
    32    15    20   ar
    33    15    16   ar
    34    16    17   ar
    35    16    83    1
    36    17    18   ar
    37    17    84    1
    38    18    19   ar
    39    18    85    1
    40    19    20   ar
    41    19    86    1
    42    20    87    1
    43    21    22    2
    44    21    23   am
    45    23    24    1
    46    23    88    1
    47    24    25    1
    48    24    32    1
    49    24    89    1
    50    25    26    1
    51    25    90    1
    52    25    91    1
    53    26    31   ar
    54    26    27   ar
    55    27    28   ar
    56    27    92    1
    57    28    29   ar
    58    28    93    1
    59    29    30   ar
    60    29    94    1
    61    30    31   ar
    62    30    95    1
    63    31    96    1
    64    32    33    1
    65    32    34    1
    66    32    97    1
    67    33    98    1
    68    34    35    1
    69    34    36    1
    70    34    99    1
    71    35   100    1
    72    36    37    1
    73    36    44    1
    74    36   101    1
    75    37    38    1
    76    37   102    1
    77    37   103    1
    78    38    43   ar
    79    38    39   ar
    80    39    40   ar
    81    39   104    1
    82    40    41   ar
    83    40   105    1
    84    41    42   ar
    85    41   106    1
    86    42    43   ar
    87    42   107    1
    88    43   108    1
    89    44    45   am
    90    44   109    1
    91    45    46    2
    92    45    47    1
    93    47    48    1
    94    47    64    1
    95    47   110    1
    96    48    49   am
    97    48   111    1
    98    49    50    2
    99    49    51    1
   100    51    52    1
   101    51    53    1
   102    51   112    1
   103    52   113    1
   104    52   114    1
   105    52   115    1
   106    53    54   am
   107    53   116    1
   108    54    55    2
   109    54    56    1
   110    56    57    1
   111    57    58    1
   112    57   117    1
   113    57   118    1
   114    58    63   ar
   115    58    59   ar
   116    59    60   ar
   117    59   119    1
   118    60    61   ar
   119    60   120    1
   120    61    62   ar
   121    61   121    1
   122    62    63   ar
   123    62   122    1
   124    63   123    1
   125    64    65    1
   126    64    66    1
   127    64   124    1
   128    65   125    1
   129    65   126    1
   130    65   127    1
   131    66   128    1
   132    66   129    1
   133    66   130    1
