
                    3D
 Schrodinger Suite 2019-4.
130133  0  0  1  0            999 V2000
  -24.5089   -5.8207  -32.7015 C   0  0  0  0  0  0
  -23.6164   -7.0596  -32.8976 C   0  0  0  0  0  0
  -23.7145   -8.0628  -31.7348 C   0  0  0  0  0  0
  -22.2115   -6.6510  -33.3292 C   0  0  2  0  0  0
  -21.3861   -7.7485  -33.8104 N   0  0  0  0  0  0
  -20.8179   -7.7808  -35.0274 C   0  0  0  0  0  0
  -21.1750   -7.0579  -35.9563 O   0  0  0  0  0  0
  -19.6215   -8.7188  -35.2200 C   0  0  1  0  0  0
  -18.6206   -8.2497  -36.2833 C   0  0  0  0  0  0
  -18.9461   -9.0531  -33.9686 N   0  0  0  0  0  0
  -18.0639   -8.2713  -33.2416 C   0  0  0  0  0  0
  -17.6953   -7.1219  -33.4930 O   0  0  0  0  0  0
  -17.7105   -8.9903  -32.1800 O   0  0  0  0  0  0
  -16.9835   -8.4143  -31.1175 C   0  0  0  0  0  0
  -17.0407   -9.2489  -29.8523 C   0  0  0  0  0  0
  -16.3203   -8.8141  -28.7292 C   0  0  0  0  0  0
  -16.4262   -9.4841  -27.4988 C   0  0  0  0  0  0
  -17.2680  -10.6040  -27.3838 C   0  0  0  0  0  0
  -17.9692  -11.0704  -28.5122 C   0  0  0  0  0  0
  -17.8420  -10.4083  -29.7492 C   0  0  0  0  0  0
  -21.5953   -6.0123  -32.1347 C   0  0  0  0  0  0
  -20.9261   -6.6524  -31.3201 O   0  0  0  0  0  0
  -21.8630   -4.7084  -32.0673 N   0  0  0  0  0  0
  -21.3349   -3.8599  -31.0588 C   0  0  2  0  0  0
  -22.0231   -2.4992  -31.0803 C   0  0  0  0  0  0
  -23.4987   -2.5812  -30.7922 C   0  0  0  0  0  0
  -24.3497   -1.7243  -31.4938 C   0  0  0  0  0  0
  -25.7161   -1.6836  -31.2015 C   0  0  0  0  0  0
  -26.2146   -2.4801  -30.1614 C   0  0  0  0  0  0
  -25.3847   -3.3759  -29.4753 C   0  0  0  0  0  0
  -24.0275   -3.4435  -29.8094 C   0  0  0  0  0  0
  -19.8521   -3.7140  -31.2739 C   0  0  2  0  0  0
  -19.2077   -4.5557  -32.2549 O   0  0  0  0  0  0
  -19.1780   -3.6227  -29.9204 C   0  0  2  0  0  0
  -17.9234   -3.8413  -30.3770 O   0  0  0  0  0  0
  -19.3921   -4.5046  -28.6485 C   0  0  1  0  0  0
  -18.0505   -5.0275  -28.0639 C   0  0  0  0  0  0
  -18.0325   -5.6108  -26.6751 C   0  0  0  0  0  0
  -17.4818   -4.8901  -25.5927 C   0  0  0  0  0  0
  -17.3863   -5.4993  -24.3303 C   0  0  0  0  0  0
  -17.8530   -6.8171  -24.1574 C   0  0  0  0  0  0
  -18.4205   -7.5227  -25.2305 C   0  0  0  0  0  0
  -18.5031   -6.9195  -26.4924 C   0  0  0  0  0  0
  -19.9923   -3.6306  -27.6545 N   0  0  0  0  0  0
  -20.8124   -3.9871  -26.6702 C   0  0  0  0  0  0
  -21.1464   -5.1449  -26.4665 O   0  0  0  0  0  0
  -21.3343   -2.8611  -25.7833 C   0  0  2  0  0  0
  -21.5296   -3.4077  -24.4754 N   0  0  0  0  0  0
  -20.6385   -3.4981  -23.5001 C   0  0  0  0  0  0
  -19.5465   -2.9350  -23.4757 O   0  0  0  0  0  0
  -21.0971   -4.4280  -22.4125 C   0  0  1  0  0  0
  -22.3980   -3.9567  -21.7142 C   0  0  0  0  0  0
  -21.1583   -5.7747  -22.9771 N   0  0  0  0  0  0
  -22.2404   -6.5389  -23.3667 C   0  0  0  0  0  0
  -23.4330   -6.2781  -23.2155 O   0  0  0  0  0  0
  -21.7594   -7.6233  -23.9845 O   0  0  0  0  0  0
  -22.6327   -8.5059  -24.6676 C   0  0  0  0  0  0
  -23.0852   -7.9182  -25.9867 C   0  0  0  0  0  0
  -24.4205   -7.5061  -26.1670 C   0  0  0  0  0  0
  -24.8134   -6.8951  -27.3724 C   0  0  0  0  0  0
  -23.8697   -6.6822  -28.3908 C   0  0  0  0  0  0
  -22.5378   -7.0871  -28.2090 C   0  0  0  0  0  0
  -22.1487   -7.7272  -27.0175 C   0  0  0  0  0  0
  -22.7240   -2.4011  -26.2603 C   0  0  0  0  0  0
  -23.8416   -3.4640  -26.2216 C   0  0  0  0  0  0
  -22.6207   -1.7410  -27.6332 C   0  0  0  0  0  0
  -24.1825   -4.9608  -33.2794 H   0  0  0  0  0  0
  -25.5029   -6.0311  -33.0537 H   0  0  0  0  0  0
  -24.5574   -5.5137  -31.6581 H   0  0  0  0  0  0
  -23.9846   -7.5930  -33.7347 H   0  0  0  0  0  0
  -23.1686   -8.9800  -31.9562 H   0  0  0  0  0  0
  -23.3112   -7.6717  -30.8082 H   0  0  0  0  0  0
  -24.7506   -8.3402  -31.5384 H   0  0  0  0  0  0
  -22.2564   -5.8775  -34.0958 H   0  0  0  0  0  0
  -21.0310   -8.3807  -33.1076 H   0  0  0  0  0  0
  -20.0491   -9.6568  -35.5731 H   0  0  0  0  0  0
  -17.8123   -8.9737  -36.3795 H   0  0  0  0  0  0
  -19.1108   -8.1619  -37.2482 H   0  0  0  0  0  0
  -18.1787   -7.2808  -36.0545 H   0  0  0  0  0  0
  -19.1093   -9.9729  -33.5867 H   0  0  0  0  0  0
  -17.4234   -7.4489  -30.8714 H   0  0  0  0  0  0
  -15.9471   -8.2535  -31.4152 H   0  0  0  0  0  0
  -15.6874   -7.9546  -28.8207 H   0  0  0  0  0  0
  -15.8667   -9.1319  -26.6441 H   0  0  0  0  0  0
  -17.3628  -11.1142  -26.4369 H   0  0  0  0  0  0
  -18.6100  -11.9362  -28.4271 H   0  0  0  0  0  0
  -18.4061  -10.7732  -30.5949 H   0  0  0  0  0  0
  -22.4421   -4.2886  -32.7804 H   0  0  0  0  0  0
  -21.5277   -4.3493  -30.1082 H   0  0  0  0  0  0
  -21.8782   -2.0328  -32.0562 H   0  0  0  0  0  0
  -21.5634   -1.8167  -30.3673 H   0  0  0  0  0  0
  -23.9333   -1.0614  -32.2201 H   0  0  0  0  0  0
  -26.3633   -1.0014  -31.7261 H   0  0  0  0  0  0
  -27.2372   -2.3798  -29.8562 H   0  0  0  0  0  0
  -25.7810   -3.9857  -28.6764 H   0  0  0  0  0  0
  -23.3978   -4.1046  -29.2405 H   0  0  0  0  0  0
  -19.7053   -2.7397  -31.7380 H   0  0  0  0  0  0
  -19.6496   -4.4501  -33.0853 H   0  0  0  0  0  0
  -19.3609   -2.5932  -29.6621 H   0  0  0  0  0  0
  -17.9939   -4.4536  -31.1021 H   0  0  0  0  0  0
  -20.0344   -5.3603  -28.8632 H   0  0  0  0  0  0
  -17.3380   -4.2133  -28.0081 H   0  0  0  0  0  0
  -17.6617   -5.7833  -28.7457 H   0  0  0  0  0  0
  -17.1104   -3.8859  -25.7331 H   0  0  0  0  0  0
  -16.9415   -4.9602  -23.5081 H   0  0  0  0  0  0
  -17.7732   -7.3143  -23.2094 H   0  0  0  0  0  0
  -18.7753   -8.5322  -25.0887 H   0  0  0  0  0  0
  -18.9122   -7.4699  -27.3241 H   0  0  0  0  0  0
  -19.7682   -2.6457  -27.7310 H   0  0  0  0  0  0
  -20.6160   -2.0418  -25.7594 H   0  0  0  0  0  0
  -22.3846   -3.9300  -24.3497 H   0  0  0  0  0  0
  -20.2659   -4.4344  -21.7174 H   0  0  0  0  0  0
  -22.7672   -4.6857  -20.9945 H   0  0  0  0  0  0
  -22.2411   -3.0122  -21.1928 H   0  0  0  0  0  0
  -23.2060   -3.7880  -22.4261 H   0  0  0  0  0  0
  -20.2659   -6.1783  -23.2281 H   0  0  0  0  0  0
  -23.4898   -8.7613  -24.0436 H   0  0  0  0  0  0
  -22.0998   -9.4356  -24.8667 H   0  0  0  0  0  0
  -25.1409   -7.6362  -25.3728 H   0  0  0  0  0  0
  -25.8360   -6.5745  -27.5076 H   0  0  0  0  0  0
  -24.1746   -6.2028  -29.3074 H   0  0  0  0  0  0
  -21.8173   -6.8818  -28.9802 H   0  0  0  0  0  0
  -21.1218   -8.0260  -26.8721 H   0  0  0  0  0  0
  -23.0476   -1.6486  -25.5475 H   0  0  0  0  0  0
  -24.7966   -3.0231  -26.5050 H   0  0  0  0  0  0
  -23.6470   -4.2849  -26.9078 H   0  0  0  0  0  0
  -23.9774   -3.8861  -25.2260 H   0  0  0  0  0  0
  -22.0447   -0.8215  -27.5867 H   0  0  0  0  0  0
  -22.1309   -2.3827  -28.3488 H   0  0  0  0  0  0
  -23.5995   -1.5107  -28.0432 H   0  0  0  0  0  0
  1  2  1  0  0  0
  1 67  1  0  0  0
  1 68  1  0  0  0
  1 69  1  0  0  0
  2  3  1  0  0  0
  2  4  1  0  0  0
  2 70  1  0  0  0
  3 71  1  0  0  0
  3 72  1  0  0  0
  3 73  1  0  0  0
  4  5  1  0  0  0
  4 21  1  0  0  0
  4 74  1  0  0  0
  5  6  1  0  0  0
  5 75  1  0  0  0
  6  7  2  0  0  0
  6  8  1  0  0  0
  8  9  1  0  0  0
  8 10  1  0  0  0
  8 76  1  0  0  0
  9 77  1  0  0  0
  9 78  1  0  0  0
  9 79  1  0  0  0
 10 11  1  0  0  0
 10 80  1  0  0  0
 11 12  2  0  0  0
 11 13  1  0  0  0
 13 14  1  0  0  0
 14 15  1  0  0  0
 14 81  1  0  0  0
 14 82  1  0  0  0
 15 20  1  0  0  0
 15 16  2  0  0  0
 16 17  1  0  0  0
 16 83  1  0  0  0
 17 18  2  0  0  0
 17 84  1  0  0  0
 18 19  1  0  0  0
 18 85  1  0  0  0
 19 20  2  0  0  0
 19 86  1  0  0  0
 20 87  1  0  0  0
 21 22  2  0  0  0
 21 23  1  0  0  0
 23 24  1  0  0  0
 23 88  1  0  0  0
 24 25  1  0  0  0
 24 32  1  0  0  0
 24 89  1  0  0  0
 25 26  1  0  0  0
 25 90  1  0  0  0
 25 91  1  0  0  0
 26 31  1  0  0  0
 26 27  2  0  0  0
 27 28  1  0  0  0
 27 92  1  0  0  0
 28 29  2  0  0  0
 28 93  1  0  0  0
 29 30  1  0  0  0
 29 94  1  0  0  0
 30 31  2  0  0  0
 30 95  1  0  0  0
 31 96  1  0  0  0
 32 33  1  0  0  0
 32 34  1  0  0  0
 32 97  1  0  0  0
 33 98  1  0  0  0
 34 35  1  0  0  0
 34 36  1  0  0  0
 34 99  1  0  0  0
 35100  1  0  0  0
 36 37  1  0  0  0
 36 44  1  0  0  0
 36101  1  0  0  0
 37 38  1  0  0  0
 37102  1  0  0  0
 37103  1  0  0  0
 38 43  1  0  0  0
 38 39  2  0  0  0
 39 40  1  0  0  0
 39104  1  0  0  0
 40 41  2  0  0  0
 40105  1  0  0  0
 41 42  1  0  0  0
 41106  1  0  0  0
 42 43  2  0  0  0
 42107  1  0  0  0
 43108  1  0  0  0
 44 45  1  0  0  0
 44109  1  0  0  0
 45 46  2  0  0  0
 45 47  1  0  0  0
 47 48  1  0  0  0
 47 64  1  0  0  0
 47110  1  0  0  0
 48 49  1  0  0  0
 48111  1  0  0  0
 49 50  2  0  0  0
 49 51  1  0  0  0
 51 52  1  0  0  0
 51 53  1  0  0  0
 51112  1  0  0  0
 52113  1  0  0  0
 52114  1  0  0  0
 52115  1  0  0  0
 53 54  1  0  0  0
 53116  1  0  0  0
 54 55  2  0  0  0
 54 56  1  0  0  0
 56 57  1  0  0  0
 57 58  1  0  0  0
 57117  1  0  0  0
 57118  1  0  0  0
 58 63  1  0  0  0
 58 59  2  0  0  0
 59 60  1  0  0  0
 59119  1  0  0  0
 60 61  2  0  0  0
 60120  1  0  0  0
 61 62  1  0  0  0
 61121  1  0  0  0
 62 63  2  0  0  0
 62122  1  0  0  0
 63123  1  0  0  0
 64 65  1  0  0  0
 64 66  1  0  0  0
 64124  1  0  0  0
 65125  1  0  0  0
 65126  1  0  0  0
 65127  1  0  0  0
 66128  1  0  0  0
 66129  1  0  0  0
 66130  1  0  0  0
M  END
$$$$
