@<TRIPOS>MOLECULE
/home/lixiaoshuang.lxs/med/data/m_pro/PDB_BA/3v3m/3v3m_ligand.pdb
 32 34 0 0 0
SMALL
GASTEIGER

@<TRIPOS>ATOM
      1  O1        21.8260  -28.7010    0.2550 O.2   401  0EN401     -0.2662
      2  C1        22.6250  -28.7910   -0.6720 C.2   401  0EN401      0.2880
      3  C4        23.1410  -30.1820   -0.9540 C.ar  401  0EN401      0.1990
      4  C5        24.1440  -30.7260   -1.7450 C.ar  401  0EN401      0.0455
      5  C6        24.1090  -32.0950   -1.5550 C.ar  401  0EN401      0.0440
      6  C7        23.0990  -32.3750   -0.6530 C.ar  401  0EN401      0.1798
      7  O3        22.5020  -31.1870   -0.2740 O.2   401  0EN401     -0.4458
      8  N1        23.0070  -27.7030   -1.3980 N.am  401  0EN401     -0.2419
      9  C8        23.9600  -27.8610   -2.4390 C.ar  401  0EN401      0.0549
     10  C9        23.5670  -28.2490   -3.7250 C.ar  401  0EN401      0.0146
     11  C10       24.5200  -28.4050   -4.7340 C.ar  401  0EN401     -0.0030
     12  C11       25.8800  -28.1720   -4.4850 C.ar  401  0EN401     -0.0227
     13  C14       26.9060  -28.3430   -5.5980 C.3   401  0EN401      0.0189
     14  C15       27.8040  -27.1130   -5.6660 C.3   401  0EN401      0.0044
     15  C16       26.2250  -28.5120   -6.9550 C.3   401  0EN401      0.0044
     16  C17       27.7660  -29.5840   -5.3440 C.3   401  0EN401      0.0044
     17  C12       26.2700  -27.7800   -3.1940 C.ar  401  0EN401     -0.0030
     18  C13       25.3220  -27.6300   -2.1780 C.ar  401  0EN401      0.0146
     19  C2        22.5400  -26.3240   -1.0950 C.3   401  0EN401      0.1820
     20  C3        23.1050  -25.3000   -2.0580 C.2   401  0EN401      0.2641
     21  N2        24.0530  -24.5110   -1.5220 N.am  401  0EN401     -0.2071
     22  C23       24.8250  -23.4290   -2.1480 C.3   401  0EN401      0.0788
     23  C24       24.7860  -23.4420   -3.6720 C.3   401  0EN401      0.0217
     24  C25       26.2950  -23.5120   -1.7450 C.3   401  0EN401      0.0217
     25  C26       24.2860  -22.1040   -1.6220 C.3   401  0EN401      0.0217
     26  O2        22.7010  -25.2600   -3.2250 O.2   401  0EN401     -0.2712
     27  C18       21.0680  -26.0740   -0.9730 C.ar  401  0EN401      0.0241
     28  C19       20.5990  -25.3210    0.1060 C.ar  401  0EN401      0.0010
     29  C20       19.2270  -25.0520    0.2290 C.ar  401  0EN401      0.0204
     30  C21       18.3800  -25.5530   -0.7530 C.ar  401  0EN401      0.0989
     31  N3        18.8480  -26.2460   -1.7870 N.ar  401  0EN401     -0.2426
     32  C22       20.1560  -26.5290   -1.9260 C.ar  401  0EN401      0.0967
@<TRIPOS>BOND
     1    15    13    1
     2    14    13    1
     3    13    16    1
     4    13    12    1
     5    11    12   ar
     6    11    10   ar
     7    12    17   ar
     8    10     9   ar
     9    23    22    1
    10    26    20    2
    11    17    18   ar
    12     9    18   ar
    13     9     8    1
    14    22    24    1
    15    22    25    1
    16    22    21    1
    17    20    21   am
    18    20    19    1
    19    32    31   ar
    20    32    27   ar
    21    31    30   ar
    22     4     5   ar
    23     4     3   ar
    24     5     6   ar
    25     8    19    1
    26     8     2   am
    27    19    27    1
    28    27    28   ar
    29     3     2    1
    30     3     7   ar
    31    30    29   ar
    32     2     1    2
    33     6     7   ar
    34    28    29   ar
