@<TRIPOS>MOLECULE
*****
 71 75 0 0 0
SMALL
GASTEIGER
****
Schrodinger Suite 2019-4.
@<TRIPOS>ATOM
      1 C         -25.3717   -5.3555  -24.2696 C.3     1  UNL1       -0.0442
      2 C         -24.2466   -4.3271  -24.0082 C.3     1  UNL1        0.0262
      3 C         -24.8870   -3.0021  -23.5496 C.3     1  UNL1       -0.0442
      4 C         -23.3227   -4.8337  -22.8735 C.3     1  UNL1       -0.0442
      5 N         -23.4794   -4.0519  -25.2307 N.am    1  UNL1       -0.3087
      6 C         -22.7206   -4.9012  -25.9516 C.2     1  UNL1        0.2388
      7 O         -22.6174   -6.1035  -25.7104 O.2     1  UNL1       -0.2734
      8 C         -21.9535   -4.2655  -27.1475 C.3     1  UNL1        0.1326
      9 C         -22.8969   -3.6465  -28.1637 C.ar    1  UNL1       -0.0109
     10 C         -22.4876   -2.6351  -29.0480 C.ar    1  UNL1       -0.0493
     11 C         -23.4661   -2.2352  -29.9445 C.ar    1  UNL1       -0.0240
     12 S         -24.9617   -3.0477  -29.6749 S.2     1  UNL1       -0.1047
     13 C         -24.2380   -3.9705  -28.3912 C.ar    1  UNL1       -0.0189
     14 N         -20.7619   -5.0475  -27.6356 N.am    1  UNL1       -0.2538
     15 C         -20.4679   -5.3642  -28.9405 C.2     1  UNL1        0.2423
     16 O         -19.2916   -5.4374  -29.3251 O.2     1  UNL1       -0.2732
     17 C         -21.5893   -5.7252  -29.9472 C.3     1  UNL1        0.1204
     18 N         -21.1003   -6.2488  -31.2194 N.ar    1  UNL1       -0.2351
     19 N         -21.0302   -5.4366  -32.2921 N.ar    1  UNL1       -0.0641
     20 N         -20.4612   -6.1335  -33.3309 N.ar    1  UNL1       -0.1295
     21 C         -20.1637   -7.3804  -32.8720 C.ar    1  UNL1        0.1127
     22 C         -19.5800   -8.4711  -33.5267 C.ar    1  UNL1       -0.0324
     23 C         -19.3849   -9.6426  -32.7958 C.ar    1  UNL1       -0.0596
     24 C         -19.7685   -9.7332  -31.4577 C.ar    1  UNL1       -0.0596
     25 C         -20.3662   -8.6646  -30.7830 C.ar    1  UNL1       -0.0345
     26 C         -20.5611   -7.4903  -31.5166 C.ar    1  UNL1        0.0895
     27 C         -19.7630   -5.4442  -26.7067 C.ar    1  UNL1        0.0376
     28 C         -18.8116   -4.5247  -26.2589 C.ar    1  UNL1       -0.0385
     29 C         -17.6935   -4.9758  -25.5577 C.ar    1  UNL1       -0.0387
     30 C         -17.5263   -6.3478  -25.2963 C.ar    1  UNL1        0.0335
     31 N         -16.3772   -6.9179  -24.7058 N.am    1  UNL1       -0.2853
     32 C         -15.1244   -6.4183  -24.6691 C.2     1  UNL1        0.2203
     33 O         -14.8229   -5.3074  -25.0932 O.2     1  UNL1       -0.2752
     34 C         -14.0725   -7.2600  -23.9111 C.3     1  UNL1        0.0359
     35 C         -12.6064   -6.8252  -24.1070 C.3     1  UNL1       -0.0419
     36 C         -12.2562   -8.3216  -24.0272 C.3     1  UNL1       -0.0517
     37 C         -13.6780   -8.6043  -24.5450 C.3     1  UNL1       -0.0419
     38 C         -18.5428   -7.2389  -25.6387 C.ar    1  UNL1       -0.0387
     39 C         -19.6550   -6.7914  -26.3461 C.ar    1  UNL1       -0.0385
     40 H         -24.9772   -6.3323  -24.5495 H       1  UNL1        0.0250
     41 H         -25.9921   -5.5057  -23.3835 H       1  UNL1        0.0250
     42 H         -26.0278   -5.0358  -25.0789 H       1  UNL1        0.0250
     43 H         -24.1338   -2.2347  -23.3728 H       1  UNL1        0.0250
     44 H         -25.5838   -2.6106  -24.2913 H       1  UNL1        0.0250
     45 H         -25.4461   -3.1240  -22.6212 H       1  UNL1        0.0250
     46 H         -22.5066   -4.1344  -22.6950 H       1  UNL1        0.0250
     47 H         -23.8711   -4.9548  -21.9396 H       1  UNL1        0.0250
     48 H         -22.8808   -5.8031  -23.1102 H       1  UNL1        0.0250
     49 H         -23.5205   -3.0956  -25.5485 H       1  UNL1        0.1493
     50 H         -21.4628   -3.4173  -26.6708 H       1  UNL1        0.0651
     51 H         -21.4881   -2.2349  -29.0581 H       1  UNL1        0.0626
     52 H         -23.3871   -1.4875  -30.7199 H       1  UNL1        0.0693
     53 H         -24.8450   -4.6983  -27.8726 H       1  UNL1        0.0697
     54 H         -22.1836   -4.8559  -30.2084 H       1  UNL1        0.0606
     55 H         -22.2709   -6.4601  -29.5102 H       1  UNL1        0.0606
     56 H         -19.2864   -8.3989  -34.5616 H       1  UNL1        0.0640
     57 H         -18.9266  -10.4984  -33.2719 H       1  UNL1        0.0618
     58 H         -19.5966  -10.6582  -30.9261 H       1  UNL1        0.0618
     59 H         -20.6572   -8.7497  -29.7481 H       1  UNL1        0.0639
     60 H         -18.8917   -3.4758  -26.5164 H       1  UNL1        0.0637
     61 H         -16.9589   -4.2437  -25.2622 H       1  UNL1        0.0637
     62 H         -16.4840   -7.8588  -24.3599 H       1  UNL1        0.1548
     63 H         -14.3275   -7.3529  -22.8626 H       1  UNL1        0.0394
     64 H         -12.1889   -6.1855  -23.3289 H       1  UNL1        0.0272
     65 H         -12.3768   -6.4060  -25.0904 H       1  UNL1        0.0272
     66 H         -12.0794   -8.6807  -23.0122 H       1  UNL1        0.0266
     67 H         -11.4452   -8.6542  -24.6770 H       1  UNL1        0.0266
     68 H         -13.7006   -8.6353  -25.6319 H       1  UNL1        0.0272
     69 H         -14.1752   -9.4911  -24.1486 H       1  UNL1        0.0272
     70 H         -18.4561   -8.2906  -25.4110 H       1  UNL1        0.0637
     71 H         -20.3992   -7.5029  -26.6728 H       1  UNL1        0.0637
@<TRIPOS>BOND
     1     1     2    1
     2     1    40    1
     3     1    41    1
     4     1    42    1
     5     2     3    1
     6     2     4    1
     7     2     5    1
     8     3    43    1
     9     3    44    1
    10     3    45    1
    11     4    46    1
    12     4    47    1
    13     4    48    1
    14     5     6   am
    15     5    49    1
    16     6     7    2
    17     6     8    1
    18     8     9    1
    19     8    14    1
    20     8    50    1
    21     9    13   ar
    22     9    10   ar
    23    10    11   ar
    24    10    51    1
    25    11    12   ar
    26    11    52    1
    27    12    13   ar
    28    13    53    1
    29    14    15   am
    30    14    27    1
    31    15    16    2
    32    15    17    1
    33    17    18    1
    34    17    54    1
    35    17    55    1
    36    18    26   ar
    37    18    19   ar
    38    19    20   ar
    39    20    21   ar
    40    21    26   ar
    41    21    22   ar
    42    22    23   ar
    43    22    56    1
    44    23    24   ar
    45    23    57    1
    46    24    25   ar
    47    24    58    1
    48    25    26   ar
    49    25    59    1
    50    27    39   ar
    51    27    28   ar
    52    28    29   ar
    53    28    60    1
    54    29    30   ar
    55    29    61    1
    56    30    31    1
    57    30    38   ar
    58    31    32   am
    59    31    62    1
    60    32    33    2
    61    32    34    1
    62    34    37    1
    63    34    35    1
    64    34    63    1
    65    35    36    1
    66    35    64    1
    67    35    65    1
    68    36    37    1
    69    36    66    1
    70    36    67    1
    71    37    68    1
    72    37    69    1
    73    38    39   ar
    74    38    70    1
    75    39    71    1
