
                    3D
 Schrodinger Suite 2019-4.
 71 75  0  0  1  0            999 V2000
  -25.3717   -5.3555  -24.2696 C   0  0  0  0  0  0
  -24.2466   -4.3271  -24.0082 C   0  0  0  0  0  0
  -24.8870   -3.0021  -23.5496 C   0  0  0  0  0  0
  -23.3227   -4.8337  -22.8735 C   0  0  0  0  0  0
  -23.4794   -4.0519  -25.2307 N   0  0  0  0  0  0
  -22.7206   -4.9012  -25.9516 C   0  0  0  0  0  0
  -22.6174   -6.1035  -25.7104 O   0  0  0  0  0  0
  -21.9535   -4.2655  -27.1475 C   0  0  2  0  0  0
  -22.8969   -3.6465  -28.1637 C   0  0  0  0  0  0
  -22.4876   -2.6351  -29.0480 C   0  0  0  0  0  0
  -23.4661   -2.2352  -29.9445 C   0  0  0  0  0  0
  -24.9617   -3.0477  -29.6749 S   0  0  0  0  0  0
  -24.2380   -3.9705  -28.3912 C   0  0  0  0  0  0
  -20.7619   -5.0475  -27.6356 N   0  0  0  0  0  0
  -20.4679   -5.3642  -28.9405 C   0  0  0  0  0  0
  -19.2916   -5.4374  -29.3251 O   0  0  0  0  0  0
  -21.5893   -5.7252  -29.9472 C   0  0  0  0  0  0
  -21.1003   -6.2488  -31.2194 N   0  0  0  0  0  0
  -21.0302   -5.4366  -32.2921 N   0  0  0  0  0  0
  -20.4612   -6.1335  -33.3309 N   0  0  0  0  0  0
  -20.1637   -7.3804  -32.8720 C   0  0  0  0  0  0
  -19.5800   -8.4711  -33.5267 C   0  0  0  0  0  0
  -19.3849   -9.6426  -32.7958 C   0  0  0  0  0  0
  -19.7685   -9.7332  -31.4577 C   0  0  0  0  0  0
  -20.3662   -8.6646  -30.7830 C   0  0  0  0  0  0
  -20.5611   -7.4903  -31.5166 C   0  0  0  0  0  0
  -19.7630   -5.4442  -26.7067 C   0  0  0  0  0  0
  -18.8116   -4.5247  -26.2589 C   0  0  0  0  0  0
  -17.6935   -4.9758  -25.5577 C   0  0  0  0  0  0
  -17.5263   -6.3478  -25.2963 C   0  0  0  0  0  0
  -16.3772   -6.9179  -24.7058 N   0  0  0  0  0  0
  -15.1244   -6.4183  -24.6691 C   0  0  0  0  0  0
  -14.8229   -5.3074  -25.0932 O   0  0  0  0  0  0
  -14.0725   -7.2600  -23.9111 C   0  0  0  0  0  0
  -12.6064   -6.8252  -24.1070 C   0  0  0  0  0  0
  -12.2562   -8.3216  -24.0272 C   0  0  0  0  0  0
  -13.6780   -8.6043  -24.5450 C   0  0  0  0  0  0
  -18.5428   -7.2389  -25.6387 C   0  0  0  0  0  0
  -19.6550   -6.7914  -26.3461 C   0  0  0  0  0  0
  -24.9772   -6.3323  -24.5495 H   0  0  0  0  0  0
  -25.9921   -5.5057  -23.3835 H   0  0  0  0  0  0
  -26.0278   -5.0358  -25.0789 H   0  0  0  0  0  0
  -24.1338   -2.2347  -23.3728 H   0  0  0  0  0  0
  -25.5838   -2.6106  -24.2913 H   0  0  0  0  0  0
  -25.4461   -3.1240  -22.6212 H   0  0  0  0  0  0
  -22.5066   -4.1344  -22.6950 H   0  0  0  0  0  0
  -23.8711   -4.9548  -21.9396 H   0  0  0  0  0  0
  -22.8808   -5.8031  -23.1102 H   0  0  0  0  0  0
  -23.5205   -3.0956  -25.5485 H   0  0  0  0  0  0
  -21.4628   -3.4173  -26.6708 H   0  0  0  0  0  0
  -21.4881   -2.2349  -29.0581 H   0  0  0  0  0  0
  -23.3871   -1.4875  -30.7199 H   0  0  0  0  0  0
  -24.8450   -4.6983  -27.8726 H   0  0  0  0  0  0
  -22.1836   -4.8559  -30.2084 H   0  0  0  0  0  0
  -22.2709   -6.4601  -29.5102 H   0  0  0  0  0  0
  -19.2864   -8.3989  -34.5616 H   0  0  0  0  0  0
  -18.9266  -10.4984  -33.2719 H   0  0  0  0  0  0
  -19.5966  -10.6582  -30.9261 H   0  0  0  0  0  0
  -20.6572   -8.7497  -29.7481 H   0  0  0  0  0  0
  -18.8917   -3.4758  -26.5164 H   0  0  0  0  0  0
  -16.9589   -4.2437  -25.2622 H   0  0  0  0  0  0
  -16.4840   -7.8588  -24.3599 H   0  0  0  0  0  0
  -14.3275   -7.3529  -22.8626 H   0  0  0  0  0  0
  -12.1889   -6.1855  -23.3289 H   0  0  0  0  0  0
  -12.3768   -6.4060  -25.0904 H   0  0  0  0  0  0
  -12.0794   -8.6807  -23.0122 H   0  0  0  0  0  0
  -11.4452   -8.6542  -24.6770 H   0  0  0  0  0  0
  -13.7006   -8.6353  -25.6319 H   0  0  0  0  0  0
  -14.1752   -9.4911  -24.1486 H   0  0  0  0  0  0
  -18.4561   -8.2906  -25.4110 H   0  0  0  0  0  0
  -20.3992   -7.5029  -26.6728 H   0  0  0  0  0  0
  1  2  1  0  0  0
  1 40  1  0  0  0
  1 41  1  0  0  0
  1 42  1  0  0  0
  2  3  1  0  0  0
  2  4  1  0  0  0
  2  5  1  0  0  0
  3 43  1  0  0  0
  3 44  1  0  0  0
  3 45  1  0  0  0
  4 46  1  0  0  0
  4 47  1  0  0  0
  4 48  1  0  0  0
  5  6  1  0  0  0
  5 49  1  0  0  0
  6  7  2  0  0  0
  6  8  1  0  0  0
  8  9  1  0  0  0
  8 14  1  0  0  0
  8 50  1  0  0  0
  9 13  2  0  0  0
  9 10  1  0  0  0
 10 11  2  0  0  0
 10 51  1  0  0  0
 11 12  1  0  0  0
 11 52  1  0  0  0
 12 13  1  0  0  0
 13 53  1  0  0  0
 14 15  1  0  0  0
 14 27  1  0  0  0
 15 16  2  0  0  0
 15 17  1  0  0  0
 17 18  1  0  0  0
 17 54  1  0  0  0
 17 55  1  0  0  0
 18 26  1  0  0  0
 18 19  1  0  0  0
 19 20  2  0  0  0
 20 21  1  0  0  0
 21 26  2  0  0  0
 21 22  1  0  0  0
 22 23  2  0  0  0
 22 56  1  0  0  0
 23 24  1  0  0  0
 23 57  1  0  0  0
 24 25  2  0  0  0
 24 58  1  0  0  0
 25 26  1  0  0  0
 25 59  1  0  0  0
 27 39  1  0  0  0
 27 28  2  0  0  0
 28 29  1  0  0  0
 28 60  1  0  0  0
 29 30  2  0  0  0
 29 61  1  0  0  0
 30 31  1  0  0  0
 30 38  1  0  0  0
 31 32  1  0  0  0
 31 62  1  0  0  0
 32 33  2  0  0  0
 32 34  1  0  0  0
 34 37  1  0  0  0
 34 35  1  0  0  0
 34 63  1  0  0  0
 35 36  1  0  0  0
 35 64  1  0  0  0
 35 65  1  0  0  0
 36 37  1  0  0  0
 36 66  1  0  0  0
 36 67  1  0  0  0
 37 68  1  0  0  0
 37 69  1  0  0  0
 38 39  2  0  0  0
 38 70  1  0  0  0
 39 71  1  0  0  0
M  END
$$$$
