@<TRIPOS>MOLECULE
/home/lixiaoshuang.lxs/med/data/m_pro/PDB_BA/4tww/4tww_ligand.pdb
 30 33 0 0 0
SMALL
GASTEIGER

@<TRIPOS>ATOM
      1  C1         1.6270   18.8580  -11.4620 C.ar  401  3A7401      0.0536
      2  C2         1.8450   19.3870  -12.7420 C.ar  401  3A7401      0.0050
      3  C3         2.0390   20.7540  -12.9010 C.ar  401  3A7401      0.0068
      4  C4         2.0270   21.5950  -11.7770 C.ar  401  3A7401      0.0346
      5  C5         1.8160   21.0510  -10.4930 C.ar  401  3A7401      0.0068
      6  C6         1.6180   19.6780  -10.3350 C.ar  401  3A7401      0.0050
      7  C7         3.5490   17.1090  -10.0730 C.3   401  3A7401      0.0936
      8  O1        -1.0140   15.4850   -5.4380 O.2   401  3A7401     -0.2868
      9  C18       -0.1980   15.3360   -6.3650 C.2   401  3A7401      0.2248
     10  C17       -0.4100   14.3510   -7.5480 C.3   401  3A7401      0.1432
     11  C19       -1.0440   13.0350   -7.1020 C.3   401  3A7401      0.0728
     12  C20       -2.0920   12.4390   -8.0350 C.ar  401  3A7401      0.0817
     13  N3        -2.5760   11.1880   -7.9040 N.ar  401  3A7401     -0.2268
     14  C22       -3.5330   10.9820   -8.8230 C.ar  401  3A7401      0.1986
     15  N2        -3.6390   12.1030   -9.5770 N.ar  401  3A7401     -0.2212
     16  C21       -2.7640   13.0250   -9.1110 C.ar  401  3A7401      0.1154
     17  N1         0.8250   13.9830   -8.3250 N.3   401  3A7401     -0.2094
     18  C16        1.5170   15.1900   -8.8070 C.3   401  3A7401      0.1089
     19  C15        1.8680   15.2340  -10.2820 C.3   401  3A7401      0.0930
     20  C14        3.0230   14.2740  -10.6420 C.3   401  3A7401      0.0214
     21  C13        4.3810   14.7090  -10.1410 C.3   401  3A7401      0.0033
     22  C12        5.4540   13.8000  -10.7220 C.3   401  3A7401      0.0001
     23  C11        6.8290   14.1590  -10.1880 C.3   401  3A7401      0.0000
     24  C10        7.1470   15.6400  -10.4350 C.3   401  3A7401      0.0001
     25  C9         6.0260   16.5770   -9.9770 C.3   401  3A7401      0.0017
     26  C8         4.6530   16.1530  -10.5390 C.3   401  3A7401      0.0199
     27  N          2.2440   16.6440  -10.6000 N.am  401  3A7401     -0.2763
     28  C          1.4300   17.3840  -11.3570 C.2   401  3A7401      0.2490
     29  O          0.5540   16.8990  -12.0500 O.2   401  3A7401     -0.2699
     30  BR         2.2990   23.4690  -12.0190 Br    401  3A7401     -0.0490
@<TRIPOS>BOND
     1     3     2   ar
     2     3     4   ar
     3     2     1   ar
     4    29    28    2
     5    30     4    1
     6     4     5   ar
     7     1    28    1
     8     1     6   ar
     9    28    27   am
    10    22    23    1
    11    22    21    1
    12    20    19    1
    13    20    21    1
    14    27    19    1
    15    27     7    1
    16    26    21    1
    17    26     7    1
    18    26    25    1
    19     5     6   ar
    20    24    23    1
    21    24    25    1
    22    19    18    1
    23    15    16   ar
    24    15    14   ar
    25    16    12   ar
    26    14    13   ar
    27    18    17    1
    28    17    10    1
    29    12    13   ar
    30    12    11    1
    31    10    11    1
    32    10     9    1
    33     9     8    2
