@<TRIPOS>MOLECULE
*****
 73 76 0 0 0
SMALL
GASTEIGER
****
Schrodinger Suite 2019-4.
@<TRIPOS>ATOM
      1 C         -28.3843   -5.9095  -28.6686 C.3     1  UNL1        0.0788
      2 O         -28.1434   -4.5912  -28.2168 O.3     1  UNL1       -0.4951
      3 C         -27.1903   -4.4576  -27.2413 C.ar    1  UNL1        0.1201
      4 C         -26.3836   -5.5259  -26.7839 C.ar    1  UNL1       -0.0197
      5 C         -25.4866   -5.3274  -25.7260 C.ar    1  UNL1       -0.0547
      6 C         -25.3852   -4.0626  -25.1191 C.ar    1  UNL1       -0.0384
      7 C         -24.4038   -3.8614  -23.9946 C.3     1  UNL1        0.0491
      8 C         -23.0408   -3.5757  -24.6080 C.2     1  UNL1        0.2179
      9 O         -22.8451   -2.4885  -25.1260 O.2     1  UNL1       -0.2754
     10 N         -22.1357   -4.5608  -24.5770 N.am    1  UNL1       -0.3037
     11 C         -20.8869   -4.6164  -25.3215 C.3     1  UNL1        0.0996
     12 C         -19.7124   -5.0845  -24.4234 C.3     1  UNL1       -0.0236
     13 C         -18.3474   -5.1921  -25.1533 C.3     1  UNL1       -0.0446
     14 C         -17.2286   -5.6934  -24.2397 C.3     1  UNL1       -0.0626
     15 C         -17.9350   -3.8601  -25.7665 C.3     1  UNL1       -0.0626
     16 C         -21.1318   -5.5256  -26.5229 C.2     1  UNL1        0.2339
     17 O         -21.6400   -6.6352  -26.3614 O.2     1  UNL1       -0.2738
     18 N         -20.7494   -5.0606  -27.7183 N.am    1  UNL1       -0.3037
     19 C         -20.8559   -5.8095  -28.9647 C.3     1  UNL1        0.0888
     20 C         -21.2928   -4.8563  -30.0952 C.3     1  UNL1       -0.0160
     21 C         -22.4093   -3.8397  -29.7507 C.3     1  UNL1        0.0390
     22 C         -23.7102   -4.5584  -29.3569 C.3     1  UNL1       -0.0262
     23 C         -24.5277   -4.6214  -30.6497 C.3     1  UNL1        0.0123
     24 N         -24.0434   -3.4897  -31.4090 N.am    1  UNL1       -0.3151
     25 C         -22.8733   -3.0351  -30.9660 C.2     1  UNL1        0.2162
     26 O         -22.2508   -2.0912  -31.4464 O.2     1  UNL1       -0.2755
     27 C         -19.4666   -6.3777  -29.3287 C.2     1  UNL1        0.2079
     28 O         -18.4478   -6.0253  -28.7358 O.2     1  UNL1       -0.2879
     29 C         -19.3463   -7.3733  -30.4321 C.ar    1  UNL1        0.1465
     30 N         -18.2211   -7.9331  -30.9001 N.ar    1  UNL1       -0.2360
     31 C         -18.5380   -8.8966  -31.8597 C.ar    1  UNL1        0.0790
     32 C         -17.6415   -9.7199  -32.5773 C.ar    1  UNL1       -0.0352
     33 C         -18.1076  -10.6975  -33.4803 C.ar    1  UNL1       -0.0597
     34 C         -19.4883  -10.8709  -33.6898 C.ar    1  UNL1       -0.0606
     35 C         -20.4040  -10.0447  -33.0163 C.ar    1  UNL1       -0.0459
     36 C         -19.9280   -9.0650  -32.1271 C.ar    1  UNL1        0.0396
     37 S         -20.8450   -7.8824  -31.2220 S.2     1  UNL1       -0.0643
     38 C         -26.1618   -2.9862  -25.5879 C.ar    1  UNL1       -0.0547
     39 C         -27.0444   -3.1886  -26.6604 C.ar    1  UNL1       -0.0197
     40 H         -29.2446   -5.8906  -29.3277 H       1  UNL1        0.0660
     41 H         -27.5473   -6.3057  -29.2451 H       1  UNL1        0.0660
     42 H         -28.6132   -6.5833  -27.8420 H       1  UNL1        0.0660
     43 H         -26.4436   -6.5130  -27.2135 H       1  UNL1        0.0654
     44 H         -24.8795   -6.1506  -25.3782 H       1  UNL1        0.0622
     45 H         -24.3660   -4.7453  -23.3565 H       1  UNL1        0.0407
     46 H         -24.7266   -3.0240  -23.3736 H       1  UNL1        0.0407
     47 H         -22.3844   -5.4030  -24.0781 H       1  UNL1        0.1495
     48 H         -20.6669   -3.6202  -25.7043 H       1  UNL1        0.0594
     49 H         -19.9628   -6.0650  -24.0183 H       1  UNL1        0.0290
     50 H         -19.6190   -4.4203  -23.5627 H       1  UNL1        0.0290
     51 H         -18.4221   -5.9237  -25.9574 H       1  UNL1        0.0296
     52 H         -16.3083   -5.8635  -24.8005 H       1  UNL1        0.0232
     53 H         -17.0028   -4.9623  -23.4664 H       1  UNL1        0.0232
     54 H         -17.5014   -6.6387  -23.7710 H       1  UNL1        0.0232
     55 H         -17.0034   -3.9534  -26.3239 H       1  UNL1        0.0232
     56 H         -18.6958   -3.4788  -26.4401 H       1  UNL1        0.0232
     57 H         -17.7941   -3.1252  -24.9782 H       1  UNL1        0.0232
     58 H         -20.3704   -4.1248  -27.7706 H       1  UNL1        0.1495
     59 H         -21.5756   -6.6207  -28.8567 H       1  UNL1        0.0582
     60 H         -21.6799   -5.4891  -30.8906 H       1  UNL1        0.0295
     61 H         -20.4286   -4.3397  -30.5183 H       1  UNL1        0.0295
     62 H         -22.0928   -3.1698  -28.9510 H       1  UNL1        0.0395
     63 H         -24.2340   -3.9632  -28.6130 H       1  UNL1        0.0288
     64 H         -23.5648   -5.5402  -28.9097 H       1  UNL1        0.0288
     65 H         -25.5997   -4.5842  -30.4810 H       1  UNL1        0.0462
     66 H         -24.3083   -5.5356  -31.2028 H       1  UNL1        0.0462
     67 H         -24.5378   -3.1043  -32.1999 H       1  UNL1        0.1487
     68 H         -16.5803   -9.5985  -32.4270 H       1  UNL1        0.0639
     69 H         -17.4011  -11.3194  -34.0110 H       1  UNL1        0.0618
     70 H         -19.8432  -11.6229  -34.3800 H       1  UNL1        0.0618
     71 H         -21.4652  -10.1513  -33.1891 H       1  UNL1        0.0629
     72 H         -26.0809   -2.0113  -25.1294 H       1  UNL1        0.0622
     73 H         -27.6376   -2.3797  -27.0388 H       1  UNL1        0.0654
@<TRIPOS>BOND
     1     1     2    1
     2     1    40    1
     3     1    41    1
     4     1    42    1
     5     2     3    1
     6     3    39   ar
     7     3     4   ar
     8     4     5   ar
     9     4    43    1
    10     5     6   ar
    11     5    44    1
    12     6     7    1
    13     6    38   ar
    14     7     8    1
    15     7    45    1
    16     7    46    1
    17     8     9    2
    18     8    10   am
    19    10    11    1
    20    10    47    1
    21    11    12    1
    22    11    16    1
    23    11    48    1
    24    12    13    1
    25    12    49    1
    26    12    50    1
    27    13    14    1
    28    13    15    1
    29    13    51    1
    30    14    52    1
    31    14    53    1
    32    14    54    1
    33    15    55    1
    34    15    56    1
    35    15    57    1
    36    16    17    2
    37    16    18   am
    38    18    19    1
    39    18    58    1
    40    19    20    1
    41    19    27    1
    42    19    59    1
    43    20    21    1
    44    20    60    1
    45    20    61    1
    46    21    25    1
    47    21    22    1
    48    21    62    1
    49    22    23    1
    50    22    63    1
    51    22    64    1
    52    23    24    1
    53    23    65    1
    54    23    66    1
    55    24    25   am
    56    24    67    1
    57    25    26    2
    58    27    28    2
    59    27    29    1
    60    29    37   ar
    61    29    30   ar
    62    30    31   ar
    63    31    36   ar
    64    31    32   ar
    65    32    33   ar
    66    32    68    1
    67    33    34   ar
    68    33    69    1
    69    34    35   ar
    70    34    70    1
    71    35    36   ar
    72    35    71    1
    73    36    37   ar
    74    38    39   ar
    75    38    72    1
    76    39    73    1
