
                    3D
 Schrodinger Suite 2019-4.
 73 76  0  0  1  0            999 V2000
  -28.3843   -5.9095  -28.6686 C   0  0  0  0  0  0
  -28.1434   -4.5912  -28.2168 O   0  0  0  0  0  0
  -27.1903   -4.4576  -27.2413 C   0  0  0  0  0  0
  -26.3836   -5.5259  -26.7839 C   0  0  0  0  0  0
  -25.4866   -5.3274  -25.7260 C   0  0  0  0  0  0
  -25.3852   -4.0626  -25.1191 C   0  0  0  0  0  0
  -24.4038   -3.8614  -23.9946 C   0  0  0  0  0  0
  -23.0408   -3.5757  -24.6080 C   0  0  0  0  0  0
  -22.8451   -2.4885  -25.1260 O   0  0  0  0  0  0
  -22.1357   -4.5608  -24.5770 N   0  0  0  0  0  0
  -20.8869   -4.6164  -25.3215 C   0  0  1  0  0  0
  -19.7124   -5.0845  -24.4234 C   0  0  0  0  0  0
  -18.3474   -5.1921  -25.1533 C   0  0  0  0  0  0
  -17.2286   -5.6934  -24.2397 C   0  0  0  0  0  0
  -17.9350   -3.8601  -25.7665 C   0  0  0  0  0  0
  -21.1318   -5.5256  -26.5229 C   0  0  0  0  0  0
  -21.6400   -6.6352  -26.3614 O   0  0  0  0  0  0
  -20.7494   -5.0606  -27.7183 N   0  0  0  0  0  0
  -20.8559   -5.8095  -28.9647 C   0  0  1  0  0  0
  -21.2928   -4.8563  -30.0952 C   0  0  0  0  0  0
  -22.4093   -3.8397  -29.7507 C   0  0  2  0  0  0
  -23.7102   -4.5584  -29.3569 C   0  0  0  0  0  0
  -24.5277   -4.6214  -30.6497 C   0  0  0  0  0  0
  -24.0434   -3.4897  -31.4090 N   0  0  0  0  0  0
  -22.8733   -3.0351  -30.9660 C   0  0  0  0  0  0
  -22.2508   -2.0912  -31.4464 O   0  0  0  0  0  0
  -19.4666   -6.3777  -29.3287 C   0  0  0  0  0  0
  -18.4478   -6.0253  -28.7358 O   0  0  0  0  0  0
  -19.3463   -7.3733  -30.4321 C   0  0  0  0  0  0
  -18.2211   -7.9331  -30.9001 N   0  0  0  0  0  0
  -18.5380   -8.8966  -31.8597 C   0  0  0  0  0  0
  -17.6415   -9.7199  -32.5773 C   0  0  0  0  0  0
  -18.1076  -10.6975  -33.4803 C   0  0  0  0  0  0
  -19.4883  -10.8709  -33.6898 C   0  0  0  0  0  0
  -20.4040  -10.0447  -33.0163 C   0  0  0  0  0  0
  -19.9280   -9.0650  -32.1271 C   0  0  0  0  0  0
  -20.8450   -7.8824  -31.2220 S   0  0  0  0  0  0
  -26.1618   -2.9862  -25.5879 C   0  0  0  0  0  0
  -27.0444   -3.1886  -26.6604 C   0  0  0  0  0  0
  -29.2446   -5.8906  -29.3277 H   0  0  0  0  0  0
  -27.5473   -6.3057  -29.2451 H   0  0  0  0  0  0
  -28.6132   -6.5833  -27.8420 H   0  0  0  0  0  0
  -26.4436   -6.5130  -27.2135 H   0  0  0  0  0  0
  -24.8795   -6.1506  -25.3782 H   0  0  0  0  0  0
  -24.3660   -4.7453  -23.3565 H   0  0  0  0  0  0
  -24.7266   -3.0240  -23.3736 H   0  0  0  0  0  0
  -22.3844   -5.4030  -24.0781 H   0  0  0  0  0  0
  -20.6669   -3.6202  -25.7043 H   0  0  0  0  0  0
  -19.9628   -6.0650  -24.0183 H   0  0  0  0  0  0
  -19.6190   -4.4203  -23.5627 H   0  0  0  0  0  0
  -18.4221   -5.9237  -25.9574 H   0  0  0  0  0  0
  -16.3083   -5.8635  -24.8005 H   0  0  0  0  0  0
  -17.0028   -4.9623  -23.4664 H   0  0  0  0  0  0
  -17.5014   -6.6387  -23.7710 H   0  0  0  0  0  0
  -17.0034   -3.9534  -26.3239 H   0  0  0  0  0  0
  -18.6958   -3.4788  -26.4401 H   0  0  0  0  0  0
  -17.7941   -3.1252  -24.9782 H   0  0  0  0  0  0
  -20.3704   -4.1248  -27.7706 H   0  0  0  0  0  0
  -21.5756   -6.6207  -28.8567 H   0  0  0  0  0  0
  -21.6799   -5.4891  -30.8906 H   0  0  0  0  0  0
  -20.4286   -4.3397  -30.5183 H   0  0  0  0  0  0
  -22.0928   -3.1698  -28.9510 H   0  0  0  0  0  0
  -24.2340   -3.9632  -28.6130 H   0  0  0  0  0  0
  -23.5648   -5.5402  -28.9097 H   0  0  0  0  0  0
  -25.5997   -4.5842  -30.4810 H   0  0  0  0  0  0
  -24.3083   -5.5356  -31.2028 H   0  0  0  0  0  0
  -24.5378   -3.1043  -32.1999 H   0  0  0  0  0  0
  -16.5803   -9.5985  -32.4270 H   0  0  0  0  0  0
  -17.4011  -11.3194  -34.0110 H   0  0  0  0  0  0
  -19.8432  -11.6229  -34.3800 H   0  0  0  0  0  0
  -21.4652  -10.1513  -33.1891 H   0  0  0  0  0  0
  -26.0809   -2.0113  -25.1294 H   0  0  0  0  0  0
  -27.6376   -2.3797  -27.0388 H   0  0  0  0  0  0
  1  2  1  0  0  0
  1 40  1  0  0  0
  1 41  1  0  0  0
  1 42  1  0  0  0
  2  3  1  0  0  0
  3 39  1  0  0  0
  3  4  2  0  0  0
  4  5  1  0  0  0
  4 43  1  0  0  0
  5  6  2  0  0  0
  5 44  1  0  0  0
  6  7  1  0  0  0
  6 38  1  0  0  0
  7  8  1  0  0  0
  7 45  1  0  0  0
  7 46  1  0  0  0
  8  9  2  0  0  0
  8 10  1  0  0  0
 10 11  1  0  0  0
 10 47  1  0  0  0
 11 12  1  0  0  0
 11 16  1  0  0  0
 11 48  1  0  0  0
 12 13  1  0  0  0
 12 49  1  0  0  0
 12 50  1  0  0  0
 13 14  1  0  0  0
 13 15  1  0  0  0
 13 51  1  0  0  0
 14 52  1  0  0  0
 14 53  1  0  0  0
 14 54  1  0  0  0
 15 55  1  0  0  0
 15 56  1  0  0  0
 15 57  1  0  0  0
 16 17  2  0  0  0
 16 18  1  0  0  0
 18 19  1  0  0  0
 18 58  1  0  0  0
 19 20  1  0  0  0
 19 27  1  0  0  0
 19 59  1  0  0  0
 20 21  1  0  0  0
 20 60  1  0  0  0
 20 61  1  0  0  0
 21 25  1  0  0  0
 21 22  1  0  0  0
 21 62  1  0  0  0
 22 23  1  0  0  0
 22 63  1  0  0  0
 22 64  1  0  0  0
 23 24  1  0  0  0
 23 65  1  0  0  0
 23 66  1  0  0  0
 24 25  1  0  0  0
 24 67  1  0  0  0
 25 26  2  0  0  0
 27 28  2  0  0  0
 27 29  1  0  0  0
 29 37  1  0  0  0
 29 30  2  0  0  0
 30 31  1  0  0  0
 31 36  2  0  0  0
 31 32  1  0  0  0
 32 33  2  0  0  0
 32 68  1  0  0  0
 33 34  1  0  0  0
 33 69  1  0  0  0
 34 35  2  0  0  0
 34 70  1  0  0  0
 35 36  1  0  0  0
 35 71  1  0  0  0
 36 37  1  0  0  0
 38 39  2  0  0  0
 38 72  1  0  0  0
 39 73  1  0  0  0
M  END
$$$$
