@<TRIPOS>MOLECULE
*****
 59 62 0 0 0
SMALL
GASTEIGER
****
Schrodinger Suite 2019-4.
@<TRIPOS>ATOM
      1 O         -20.7640   -3.4771  -22.8227 O.co2   1  HIS1       -0.8752
      2 C         -21.5813   -3.8260  -23.7463 C.2     1  HIS1       -0.0846
      3 CA        -21.5250   -4.8276  -24.6445 C.2     1  HIS1        0.1103
      4 CB        -20.4193   -5.8736  -24.8292 C.3     1  HIS1        0.0689
      5 CG        -18.9758   -5.4156  -24.9054 C.ar    1  HIS1        0.0686
      6 CD2       -18.4579   -4.1276  -24.9849 C.ar    1  HIS1        0.0248
      7 NE2       -17.1036   -4.2785  -25.0454 N.ar    1  HIS1       -0.3506
      8 CE1       -16.8822   -5.6273  -25.0209 C.ar    1  HIS1        0.0936
      9 ND1       -17.9970   -6.3137  -24.9411 N.ar    1  HIS1       -0.2404
     10 C         -22.2347   -4.4634  -26.9856 C.3     0  UNK0        0.1079
     11 C         -22.9572   -5.3567  -28.0047 C.3     0  UNK0        0.0799
     12 C         -22.4787   -5.1201  -29.4515 C.3     0  UNK0       -0.0254
     13 C         -22.9866   -3.8106  -30.0595 C.3     0  UNK0       -0.0349
     14 C         -22.5512   -3.6710  -31.5403 C.3     0  UNK0       -0.0498
     15 C         -23.1589   -2.4264  -32.2202 C.3     0  UNK0       -0.0528
     16 C         -24.6907   -2.3786  -32.0206 C.3     0  UNK0       -0.0527
     17 C         -25.0381   -2.4720  -30.5320 C.3     0  UNK0       -0.0485
     18 C         -24.5294   -3.8088  -29.9672 C.3     0  UNK0       -0.0223
     19 C         -25.0314   -3.9939  -28.5222 C.3     0  UNK0        0.0186
     20 N         -24.4407   -5.2240  -27.9482 N.am    0  UNK0       -0.2884
     21 C         -25.1486   -6.1693  -27.2481 C.2     0  UNK0        0.2470
     22 O         -24.5951   -7.1945  -26.8357 O.2     0  UNK0       -0.2700
     23 C         -26.6229   -6.0098  -26.9133 C.ar    0  UNK0        0.0369
     24 C         -27.2046   -4.7776  -26.5683 C.ar    0  UNK0       -0.0496
     25 C         -28.5440   -4.6882  -26.2084 C.ar    0  UNK0       -0.0610
     26 C         -29.3140   -5.8434  -26.1416 C.ar    0  UNK0       -0.0617
     27 C         -28.7470   -7.0776  -26.4378 C.ar    0  UNK0       -0.0610
     28 C         -27.4185   -7.1610  -26.8327 C.ar    0  UNK0       -0.0496
     29 N         -22.6263   -4.9438  -25.5797 N.pl3   1  HIS1       -0.4022
     30 H         -22.4806   -3.2302  -23.8425 H       1  HIS1        0.0504
     31 HB1       -20.6230   -6.4472  -25.7334 H       1  HIS1        0.0434
     32 HB2       -20.5484   -6.6086  -24.0399 H       1  HIS1        0.0434
     33 HD2       -18.9196   -3.1516  -24.9862 H       1  HIS1        0.0825
     34 HE2       -16.4169   -3.5368  -25.1012 H       1  HIS1        0.1662
     35 HE1       -15.8752   -6.0232  -25.0619 H       1  HIS1        0.1027
     36 H         -22.5179   -3.4102  -27.0290 H       0  UNK0        0.0987
     37 H         -21.1498   -4.5403  -27.0868 H       0  UNK0        0.0987
     38 H         -22.6528   -6.3833  -27.7889 H       0  UNK0        0.0561
     39 H         -22.8410   -5.9490  -30.0659 H       0  UNK0        0.0288
     40 H         -21.3930   -5.1996  -29.5332 H       0  UNK0        0.0288
     41 H         -22.6092   -2.9627  -29.4810 H       0  UNK0        0.0305
     42 H         -22.8806   -4.5538  -32.0926 H       0  UNK0        0.0268
     43 H         -21.4640   -3.6829  -31.6225 H       0  UNK0        0.0268
     44 H         -22.9129   -2.4247  -33.2805 H       0  UNK0        0.0265
     45 H         -22.7066   -1.5256  -31.7988 H       0  UNK0        0.0265
     46 H         -25.1584   -3.2122  -32.5444 H       0  UNK0        0.0265
     47 H         -25.1220   -1.4768  -32.4388 H       0  UNK0        0.0265
     48 H         -26.1139   -2.3893  -30.3930 H       0  UNK0        0.0269
     49 H         -24.6407   -1.6290  -29.9645 H       0  UNK0        0.0269
     50 H         -24.9158   -4.6343  -30.5673 H       0  UNK0        0.0319
     51 H         -26.1121   -4.0598  -28.6190 H       0  UNK0        0.0467
     52 H         -24.7553   -3.1277  -27.9145 H       0  UNK0        0.0467
     53 H         -26.6215   -3.8713  -26.5507 H       0  UNK0        0.0625
     54 H         -28.9810   -3.7307  -25.9664 H       0  UNK0        0.0618
     55 H         -30.3508   -5.7784  -25.8430 H       0  UNK0        0.0618
     56 H         -29.3189   -7.9826  -26.3491 H       0  UNK0        0.0618
     57 H         -27.0052   -8.1340  -27.0591 H       0  UNK0        0.0625
     58 H1        -23.4299   -4.4190  -25.2571 H       1  HIS1        0.3725
     59 H2        -22.9196   -5.9105  -25.6369 H       1  HIS1        0.3725
@<TRIPOS>BOND
     1     1     2    1
     2     2     3    2
     3     2    30    1
     4     3     4    1
     5     3    29    1
     6     4     5    1
     7     4    31    1
     8     4    32    1
     9     5     9   ar
    10     5     6   ar
    11     6     7   ar
    12     6    33    1
    13     7     8   ar
    14     7    34    1
    15     8     9   ar
    16     8    35    1
    17    10    11    1
    18    10    29    1
    19    10    36    1
    20    10    37    1
    21    11    20    1
    22    11    12    1
    23    11    38    1
    24    12    13    1
    25    12    39    1
    26    12    40    1
    27    13    18    1
    28    13    14    1
    29    13    41    1
    30    14    15    1
    31    14    42    1
    32    14    43    1
    33    15    16    1
    34    15    44    1
    35    15    45    1
    36    16    17    1
    37    16    46    1
    38    16    47    1
    39    17    18    1
    40    17    48    1
    41    17    49    1
    42    18    19    1
    43    18    50    1
    44    19    20    1
    45    19    51    1
    46    19    52    1
    47    20    21   am
    48    21    22    2
    49    21    23    1
    50    23    28   ar
    51    23    24   ar
    52    24    25   ar
    53    24    53    1
    54    25    26   ar
    55    25    54    1
    56    26    27   ar
    57    26    55    1
    58    27    28   ar
    59    27    56    1
    60    28    57    1
    61    29    58    1
    62    29    59    1
