
                    3D
 Schrodinger Suite 2019-4.
 59 62  0  0  1  0            999 V2000
  -20.7640   -3.4771  -22.8227 O   0  5  0  0  0  0
  -21.5813   -3.8260  -23.7463 C   0  0  0  0  0  0
  -21.5250   -4.8276  -24.6445 C   0  0  0  0  0  0
  -20.4193   -5.8736  -24.8292 C   0  0  0  0  0  0
  -18.9758   -5.4156  -24.9054 C   0  0  0  0  0  0
  -18.4579   -4.1276  -24.9849 C   0  0  0  0  0  0
  -17.1036   -4.2785  -25.0454 N   0  0  0  0  0  0
  -16.8822   -5.6273  -25.0209 C   0  0  0  0  0  0
  -17.9970   -6.3137  -24.9411 N   0  0  0  0  0  0
  -22.2347   -4.4634  -26.9856 C   0  0  0  0  0  0
  -22.9572   -5.3567  -28.0047 C   0  0  2  0  0  0
  -22.4787   -5.1201  -29.4515 C   0  0  0  0  0  0
  -22.9866   -3.8106  -30.0595 C   0  0  1  0  0  0
  -22.5512   -3.6710  -31.5403 C   0  0  0  0  0  0
  -23.1589   -2.4264  -32.2202 C   0  0  0  0  0  0
  -24.6907   -2.3786  -32.0206 C   0  0  0  0  0  0
  -25.0381   -2.4720  -30.5320 C   0  0  0  0  0  0
  -24.5294   -3.8088  -29.9672 C   0  0  2  0  0  0
  -25.0314   -3.9939  -28.5222 C   0  0  0  0  0  0
  -24.4407   -5.2240  -27.9482 N   0  0  0  0  0  0
  -25.1486   -6.1693  -27.2481 C   0  0  0  0  0  0
  -24.5951   -7.1945  -26.8357 O   0  0  0  0  0  0
  -26.6229   -6.0098  -26.9133 C   0  0  0  0  0  0
  -27.2046   -4.7776  -26.5683 C   0  0  0  0  0  0
  -28.5440   -4.6882  -26.2084 C   0  0  0  0  0  0
  -29.3140   -5.8434  -26.1416 C   0  0  0  0  0  0
  -28.7470   -7.0776  -26.4378 C   0  0  0  0  0  0
  -27.4185   -7.1610  -26.8327 C   0  0  0  0  0  0
  -22.6263   -4.9438  -25.5797 N   0  3  0  0  0  0
  -22.4806   -3.2302  -23.8425 H   0  0  0  0  0  0
  -20.6230   -6.4472  -25.7334 H   0  0  0  0  0  0
  -20.5484   -6.6086  -24.0399 H   0  0  0  0  0  0
  -18.9196   -3.1516  -24.9862 H   0  0  0  0  0  0
  -16.4169   -3.5368  -25.1012 H   0  0  0  0  0  0
  -15.8752   -6.0232  -25.0619 H   0  0  0  0  0  0
  -22.5179   -3.4102  -27.0290 H   0  0  0  0  0  0
  -21.1498   -4.5403  -27.0868 H   0  0  0  0  0  0
  -22.6528   -6.3833  -27.7889 H   0  0  0  0  0  0
  -22.8410   -5.9490  -30.0659 H   0  0  0  0  0  0
  -21.3930   -5.1996  -29.5332 H   0  0  0  0  0  0
  -22.6092   -2.9627  -29.4810 H   0  0  0  0  0  0
  -22.8806   -4.5538  -32.0926 H   0  0  0  0  0  0
  -21.4640   -3.6829  -31.6225 H   0  0  0  0  0  0
  -22.9129   -2.4247  -33.2805 H   0  0  0  0  0  0
  -22.7066   -1.5256  -31.7988 H   0  0  0  0  0  0
  -25.1584   -3.2122  -32.5444 H   0  0  0  0  0  0
  -25.1220   -1.4768  -32.4388 H   0  0  0  0  0  0
  -26.1139   -2.3893  -30.3930 H   0  0  0  0  0  0
  -24.6407   -1.6290  -29.9645 H   0  0  0  0  0  0
  -24.9158   -4.6343  -30.5673 H   0  0  0  0  0  0
  -26.1121   -4.0598  -28.6190 H   0  0  0  0  0  0
  -24.7553   -3.1277  -27.9145 H   0  0  0  0  0  0
  -26.6215   -3.8713  -26.5507 H   0  0  0  0  0  0
  -28.9810   -3.7307  -25.9664 H   0  0  0  0  0  0
  -30.3508   -5.7784  -25.8430 H   0  0  0  0  0  0
  -29.3189   -7.9826  -26.3491 H   0  0  0  0  0  0
  -27.0052   -8.1340  -27.0591 H   0  0  0  0  0  0
  -23.4299   -4.4190  -25.2571 H   0  0  0  0  0  0
  -22.9196   -5.9105  -25.6369 H   0  0  0  0  0  0
  1  2  1  0  0  0
  2  3  2  0  0  0
  2 30  1  0  0  0
  3  4  1  0  0  0
  3 29  1  0  0  0
  4  5  1  0  0  0
  4 31  1  0  0  0
  4 32  1  0  0  0
  5  9  1  0  0  0
  5  6  2  0  0  0
  6  7  1  0  0  0
  6 33  1  0  0  0
  7  8  1  0  0  0
  7 34  1  0  0  0
  8  9  2  0  0  0
  8 35  1  0  0  0
 10 11  1  0  0  0
 10 29  1  0  0  0
 10 36  1  0  0  0
 10 37  1  0  0  0
 11 20  1  0  0  0
 11 12  1  0  0  0
 11 38  1  0  0  0
 12 13  1  0  0  0
 12 39  1  0  0  0
 12 40  1  0  0  0
 13 18  1  0  0  0
 13 14  1  0  0  0
 13 41  1  0  0  0
 14 15  1  0  0  0
 14 42  1  0  0  0
 14 43  1  0  0  0
 15 16  1  0  0  0
 15 44  1  0  0  0
 15 45  1  0  0  0
 16 17  1  0  0  0
 16 46  1  0  0  0
 16 47  1  0  0  0
 17 18  1  0  0  0
 17 48  1  0  0  0
 17 49  1  0  0  0
 18 19  1  0  0  0
 18 50  1  0  0  0
 19 20  1  0  0  0
 19 51  1  0  0  0
 19 52  1  0  0  0
 20 21  1  0  0  0
 21 22  2  0  0  0
 21 23  1  0  0  0
 23 28  1  0  0  0
 23 24  2  0  0  0
 24 25  1  0  0  0
 24 53  1  0  0  0
 25 26  2  0  0  0
 25 54  1  0  0  0
 26 27  1  0  0  0
 26 55  1  0  0  0
 27 28  2  0  0  0
 27 56  1  0  0  0
 28 57  1  0  0  0
 29 58  1  0  0  0
 29 59  1  0  0  0
M  CHG  2   1  -1  29   1
M  END
$$$$
