@<TRIPOS>MOLECULE
*****
 74 77 0 0 0
SMALL
GASTEIGER
****
Schrodinger Suite 2019-4.
@<TRIPOS>ATOM
      1 C         -27.3526    0.2116  -34.1840 C.3     1  UNL1        0.0788
      2 O         -27.7390   -0.7224  -33.1899 O.3     1  UNL1       -0.4951
      3 C         -26.7265   -1.3853  -32.5481 C.ar    1  UNL1        0.1203
      4 C         -26.7425   -2.7724  -32.5840 C.ar    1  UNL1       -0.0165
      5 C         -25.7329   -3.4979  -31.9729 C.ar    1  UNL1       -0.0165
      6 C         -24.7868   -2.8370  -31.1982 C.ar    1  UNL1        0.1214
      7 O         -23.9571   -3.5672  -30.3994 O.3     1  UNL1       -0.4828
      8 C         -24.6514   -4.0791  -29.2564 C.3     1  UNL1        0.1652
      9 C         -23.7415   -4.9822  -28.4336 C.2     1  UNL1        0.2513
     10 O         -24.1675   -5.4612  -27.3840 O.2     1  UNL1       -0.2721
     11 N         -22.4949   -5.1876  -28.8843 N.am    1  UNL1       -0.3012
     12 C         -21.4176   -5.7752  -28.0978 C.3     1  UNL1        0.0997
     13 C         -20.2341   -6.1304  -29.0305 C.3     1  UNL1       -0.0236
     14 C         -20.5202   -7.2647  -30.0397 C.3     1  UNL1       -0.0446
     15 C         -20.8444   -8.6012  -29.3441 C.3     1  UNL1       -0.0626
     16 C         -19.3620   -7.4092  -31.0479 C.3     1  UNL1       -0.0626
     17 C         -20.9935   -4.7471  -27.0423 C.2     1  UNL1        0.2339
     18 O         -20.3352   -3.7732  -27.3838 O.2     1  UNL1       -0.2738
     19 N         -21.3861   -4.9590  -25.7777 N.am    1  UNL1       -0.3037
     20 C         -21.0243   -4.1123  -24.6277 C.3     1  UNL1        0.0888
     21 C         -21.7218   -4.5537  -23.3212 C.3     1  UNL1       -0.0160
     22 C         -23.2637   -4.4310  -23.3586 C.3     1  UNL1        0.0390
     23 C         -23.7973   -3.0341  -23.6614 C.3     1  UNL1       -0.0262
     24 C         -25.0800   -2.9703  -22.8699 C.3     1  UNL1        0.0123
     25 N         -24.7867   -3.8401  -21.7489 N.am    1  UNL1       -0.3151
     26 C         -23.8556   -4.7757  -21.9853 C.2     1  UNL1        0.2162
     27 O         -23.5356   -5.7125  -21.2590 O.2     1  UNL1       -0.2755
     28 C         -19.5136   -3.9789  -24.3830 C.2     1  UNL1        0.2079
     29 O         -19.1351   -2.9730  -23.7848 O.2     1  UNL1       -0.2879
     30 C         -18.5175   -4.9971  -24.7570 C.ar    1  UNL1        0.1465
     31 N         -17.2294   -4.7827  -24.8504 N.ar    1  UNL1       -0.2360
     32 C         -16.5297   -5.9437  -24.9543 C.ar    1  UNL1        0.0790
     33 C         -15.1347   -6.0376  -24.9840 C.ar    1  UNL1       -0.0352
     34 C         -14.5565   -7.3079  -24.9839 C.ar    1  UNL1       -0.0597
     35 C         -15.3382   -8.4613  -25.0052 C.ar    1  UNL1       -0.0606
     36 C         -16.7303   -8.3938  -25.0284 C.ar    1  UNL1       -0.0459
     37 C         -17.3145   -7.1224  -24.9911 C.ar    1  UNL1        0.0396
     38 S         -19.0001   -6.6728  -24.9670 S.2     1  UNL1       -0.0643
     39 C         -24.7527   -1.4465  -31.1513 C.ar    1  UNL1       -0.0165
     40 C         -25.7220   -0.7226  -31.8391 C.ar    1  UNL1       -0.0165
     41 H         -28.2414    0.6531  -34.6284 H       1  UNL1        0.0660
     42 H         -26.7353    1.0207  -33.7887 H       1  UNL1        0.0660
     43 H         -26.8202   -0.2948  -34.9839 H       1  UNL1        0.0660
     44 H         -27.5231   -3.2814  -33.1290 H       1  UNL1        0.0655
     45 H         -25.7371   -4.5728  -32.0186 H       1  UNL1        0.0655
     46 H         -25.5342   -4.6598  -29.5276 H       1  UNL1        0.0795
     47 H         -24.9820   -3.2604  -28.6143 H       1  UNL1        0.0795
     48 H         -22.2260   -4.7375  -29.7469 H       1  UNL1        0.1496
     49 H         -21.7779   -6.6751  -27.5957 H       1  UNL1        0.0594
     50 H         -19.3694   -6.4135  -28.4266 H       1  UNL1        0.0290
     51 H         -19.9316   -5.2327  -29.5728 H       1  UNL1        0.0290
     52 H         -21.3970   -6.9744  -30.6202 H       1  UNL1        0.0296
     53 H         -20.3321   -9.4470  -29.8028 H       1  UNL1        0.0232
     54 H         -20.5556   -8.5894  -28.2929 H       1  UNL1        0.0232
     55 H         -21.9131   -8.8117  -29.3906 H       1  UNL1        0.0232
     56 H         -19.7396   -7.5683  -32.0592 H       1  UNL1        0.0232
     57 H         -18.7355   -6.5179  -31.0781 H       1  UNL1        0.0232
     58 H         -18.7039   -8.2461  -30.8062 H       1  UNL1        0.0232
     59 H         -22.0035   -5.7359  -25.5864 H       1  UNL1        0.1495
     60 H         -21.3976   -3.1152  -24.8711 H       1  UNL1        0.0582
     61 H         -21.3482   -3.9510  -22.4891 H       1  UNL1        0.0295
     62 H         -21.4503   -5.5882  -23.0985 H       1  UNL1        0.0295
     63 H         -23.6714   -5.1519  -24.0689 H       1  UNL1        0.0395
     64 H         -23.9350   -2.8288  -24.7237 H       1  UNL1        0.0288
     65 H         -23.1347   -2.2650  -23.2768 H       1  UNL1        0.0288
     66 H         -25.9354   -3.3745  -23.3840 H       1  UNL1        0.0462
     67 H         -25.3354   -1.9559  -22.5832 H       1  UNL1        0.0462
     68 H         -25.3371   -3.8281  -20.9008 H       1  UNL1        0.1487
     69 H         -14.5153   -5.1566  -24.9842 H       1  UNL1        0.0639
     70 H         -13.4798   -7.4037  -24.9964 H       1  UNL1        0.0618
     71 H         -14.8457   -9.4227  -25.0399 H       1  UNL1        0.0618
     72 H         -17.3357   -9.2883  -25.0622 H       1  UNL1        0.0629
     73 H         -24.0164   -0.9394  -30.5448 H       1  UNL1        0.0655
     74 H         -25.7235    0.3515  -31.7841 H       1  UNL1        0.0655
@<TRIPOS>BOND
     1     1     2    1
     2     1    41    1
     3     1    42    1
     4     1    43    1
     5     2     3    1
     6     3    40   ar
     7     3     4   ar
     8     4     5   ar
     9     4    44    1
    10     5     6   ar
    11     5    45    1
    12     6     7    1
    13     6    39   ar
    14     7     8    1
    15     8     9    1
    16     8    46    1
    17     8    47    1
    18     9    10    2
    19     9    11   am
    20    11    12    1
    21    11    48    1
    22    12    13    1
    23    12    17    1
    24    12    49    1
    25    13    14    1
    26    13    50    1
    27    13    51    1
    28    14    15    1
    29    14    16    1
    30    14    52    1
    31    15    53    1
    32    15    54    1
    33    15    55    1
    34    16    56    1
    35    16    57    1
    36    16    58    1
    37    17    18    2
    38    17    19   am
    39    19    20    1
    40    19    59    1
    41    20    21    1
    42    20    28    1
    43    20    60    1
    44    21    22    1
    45    21    61    1
    46    21    62    1
    47    22    26    1
    48    22    23    1
    49    22    63    1
    50    23    24    1
    51    23    64    1
    52    23    65    1
    53    24    25    1
    54    24    66    1
    55    24    67    1
    56    25    26   am
    57    25    68    1
    58    26    27    2
    59    28    29    2
    60    28    30    1
    61    30    38   ar
    62    30    31   ar
    63    31    32   ar
    64    32    37   ar
    65    32    33   ar
    66    33    34   ar
    67    33    69    1
    68    34    35   ar
    69    34    70    1
    70    35    36   ar
    71    35    71    1
    72    36    37   ar
    73    36    72    1
    74    37    38   ar
    75    39    40   ar
    76    39    73    1
    77    40    74    1
