@<TRIPOS>MOLECULE
*****
 76 79 0 0 0
SMALL
GASTEIGER
****
Schrodinger Suite 2019-4.
@<TRIPOS>ATOM
      1 C         -17.8335  -10.9222  -36.4254 C.3     1  UNL1        0.0788
      2 O         -19.0942  -10.5376  -35.8891 O.3     1  UNL1       -0.4951
      3 C         -19.1437   -9.5239  -34.9523 C.ar    1  UNL1        0.1201
      4 C         -20.4152   -9.1247  -34.5404 C.ar    1  UNL1       -0.0197
      5 C         -20.5658   -8.1053  -33.6053 C.ar    1  UNL1       -0.0551
      6 C         -19.4422   -7.4629  -33.0852 C.ar    1  UNL1       -0.0467
      7 C         -19.6159   -6.3456  -32.0670 C.3     1  UNL1       -0.0194
      8 C         -19.7032   -6.8950  -30.6272 C.3     1  UNL1        0.0279
      9 C         -19.8745   -5.7964  -29.5771 C.2     1  UNL1        0.2139
     10 O         -18.9115   -5.4520  -28.8965 O.2     1  UNL1       -0.2758
     11 N         -21.0973   -5.2475  -29.4629 N.am    1  UNL1       -0.3040
     12 C         -21.4747   -4.2128  -28.4950 C.3     1  UNL1        0.0996
     13 C         -22.8295   -3.5754  -28.8947 C.3     1  UNL1       -0.0236
     14 C         -22.7847   -2.6539  -30.1423 C.3     1  UNL1       -0.0446
     15 C         -24.0720   -1.8091  -30.2515 C.3     1  UNL1       -0.0626
     16 C         -22.5063   -3.4061  -31.4618 C.3     1  UNL1       -0.0626
     17 C         -21.5343   -4.8159  -27.0780 C.2     1  UNL1        0.2339
     18 O         -22.1736   -5.8514  -26.8916 O.2     1  UNL1       -0.2738
     19 N         -20.8385   -4.1731  -26.1224 N.am    1  UNL1       -0.3037
     20 C         -20.4869   -4.7321  -24.8044 C.3     1  UNL1        0.0888
     21 C         -18.9619   -4.6433  -24.5507 C.3     1  UNL1       -0.0160
     22 C         -18.1492   -5.6599  -25.3957 C.3     1  UNL1        0.0390
     23 C         -18.2692   -7.1160  -24.9651 C.3     1  UNL1       -0.0262
     24 C         -16.9050   -7.7026  -25.2746 C.3     1  UNL1        0.0123
     25 N         -16.0319   -6.5414  -25.2277 N.am    1  UNL1       -0.3151
     26 C         -16.6474   -5.3546  -25.3560 C.2     1  UNL1        0.2162
     27 O         -16.1233   -4.2521  -25.4930 O.2     1  UNL1       -0.2755
     28 C         -21.3058   -3.9774  -23.7562 C.2     1  UNL1        0.2079
     29 O         -20.7995   -3.0605  -23.1002 O.2     1  UNL1       -0.2879
     30 C         -22.6815   -4.4158  -23.4965 C.ar    1  UNL1        0.1465
     31 N         -23.2316   -5.5120  -23.9481 N.ar    1  UNL1       -0.2360
     32 C         -24.4994   -5.6750  -23.4965 C.ar    1  UNL1        0.0790
     33 C         -25.3305   -6.7558  -23.8262 C.ar    1  UNL1       -0.0352
     34 C         -26.6138   -6.7950  -23.2790 C.ar    1  UNL1       -0.0597
     35 C         -27.0696   -5.7827  -22.4342 C.ar    1  UNL1       -0.0606
     36 C         -26.2625   -4.6922  -22.0995 C.ar    1  UNL1       -0.0459
     37 C         -24.9709   -4.6490  -22.6399 C.ar    1  UNL1        0.0396
     38 S         -23.7017   -3.4505  -22.4401 S.2     1  UNL1       -0.0643
     39 C         -18.1668   -7.8565  -33.4899 C.ar    1  UNL1       -0.0551
     40 C         -18.0154   -8.8917  -34.4075 C.ar    1  UNL1       -0.0197
     41 H         -17.9839  -11.7139  -37.1607 H       1  UNL1        0.0660
     42 H         -17.3505  -10.0877  -36.9352 H       1  UNL1        0.0660
     43 H         -17.1653  -11.3112  -35.6539 H       1  UNL1        0.0660
     44 H         -21.2890   -9.6100  -34.9511 H       1  UNL1        0.0654
     45 H         -21.5540   -7.8141  -33.2840 H       1  UNL1        0.0621
     46 H         -20.5113   -5.7747  -32.3210 H       1  UNL1        0.0318
     47 H         -18.7822   -5.6456  -32.1660 H       1  UNL1        0.0318
     48 H         -18.7875   -7.4502  -30.4072 H       1  UNL1        0.0361
     49 H         -20.5154   -7.6207  -30.5296 H       1  UNL1        0.0361
     50 H         -21.8464   -5.5884  -30.0459 H       1  UNL1        0.1494
     51 H         -20.7113   -3.4343  -28.5131 H       1  UNL1        0.0594
     52 H         -23.1605   -2.9653  -28.0505 H       1  UNL1        0.0290
     53 H         -23.5952   -4.3444  -29.0150 H       1  UNL1        0.0290
     54 H         -21.9681   -1.9455  -29.9911 H       1  UNL1        0.0296
     55 H         -23.8328   -0.7468  -30.3242 H       1  UNL1        0.0232
     56 H         -24.6721   -2.0672  -31.1256 H       1  UNL1        0.0232
     57 H         -24.7201   -1.9299  -29.3826 H       1  UNL1        0.0232
     58 H         -23.0136   -2.9573  -32.3151 H       1  UNL1        0.0232
     59 H         -21.4411   -3.3955  -31.6926 H       1  UNL1        0.0232
     60 H         -22.8286   -4.4464  -31.4122 H       1  UNL1        0.0232
     61 H         -20.3626   -3.3182  -26.3757 H       1  UNL1        0.1495
     62 H         -20.7501   -5.7923  -24.7520 H       1  UNL1        0.0582
     63 H         -18.7545   -4.8176  -23.4935 H       1  UNL1        0.0295
     64 H         -18.6268   -3.6233  -24.7538 H       1  UNL1        0.0295
     65 H         -18.4339   -5.5584  -26.4414 H       1  UNL1        0.0395
     66 H         -19.0789   -7.6554  -25.4611 H       1  UNL1        0.0288
     67 H         -18.4570   -7.1819  -23.8931 H       1  UNL1        0.0288
     68 H         -16.8670   -8.1511  -26.2703 H       1  UNL1        0.0462
     69 H         -16.5976   -8.4558  -24.5471 H       1  UNL1        0.0462
     70 H         -15.0259   -6.6463  -25.3577 H       1  UNL1        0.1487
     71 H         -24.9816   -7.5412  -24.4803 H       1  UNL1        0.0639
     72 H         -27.2702   -7.6208  -23.5164 H       1  UNL1        0.0618
     73 H         -28.0729   -5.8530  -22.0382 H       1  UNL1        0.0618
     74 H         -26.6184   -3.9056  -21.4486 H       1  UNL1        0.0629
     75 H         -17.2873   -7.3713  -33.0930 H       1  UNL1        0.0621
     76 H         -17.0159   -9.1738  -34.6996 H       1  UNL1        0.0654
@<TRIPOS>BOND
     1     1     2    1
     2     1    41    1
     3     1    42    1
     4     1    43    1
     5     2     3    1
     6     3    40   ar
     7     3     4   ar
     8     4     5   ar
     9     4    44    1
    10     5     6   ar
    11     5    45    1
    12     6     7    1
    13     6    39   ar
    14     7     8    1
    15     7    46    1
    16     7    47    1
    17     8     9    1
    18     8    48    1
    19     8    49    1
    20     9    10    2
    21     9    11   am
    22    11    12    1
    23    11    50    1
    24    12    13    1
    25    12    17    1
    26    12    51    1
    27    13    14    1
    28    13    52    1
    29    13    53    1
    30    14    15    1
    31    14    16    1
    32    14    54    1
    33    15    55    1
    34    15    56    1
    35    15    57    1
    36    16    58    1
    37    16    59    1
    38    16    60    1
    39    17    18    2
    40    17    19   am
    41    19    20    1
    42    19    61    1
    43    20    21    1
    44    20    28    1
    45    20    62    1
    46    21    22    1
    47    21    63    1
    48    21    64    1
    49    22    26    1
    50    22    23    1
    51    22    65    1
    52    23    24    1
    53    23    66    1
    54    23    67    1
    55    24    25    1
    56    24    68    1
    57    24    69    1
    58    25    26   am
    59    25    70    1
    60    26    27    2
    61    28    29    2
    62    28    30    1
    63    30    38   ar
    64    30    31   ar
    65    31    32   ar
    66    32    37   ar
    67    32    33   ar
    68    33    34   ar
    69    33    71    1
    70    34    35   ar
    71    34    72    1
    72    35    36   ar
    73    35    73    1
    74    36    37   ar
    75    36    74    1
    76    37    38   ar
    77    39    40   ar
    78    39    75    1
    79    40    76    1
