
                    3D
 Schrodinger Suite 2019-4.
 76 79  0  0  1  0            999 V2000
  -17.8335  -10.9222  -36.4254 C   0  0  0  0  0  0
  -19.0942  -10.5376  -35.8891 O   0  0  0  0  0  0
  -19.1437   -9.5239  -34.9523 C   0  0  0  0  0  0
  -20.4152   -9.1247  -34.5404 C   0  0  0  0  0  0
  -20.5658   -8.1053  -33.6053 C   0  0  0  0  0  0
  -19.4422   -7.4629  -33.0852 C   0  0  0  0  0  0
  -19.6159   -6.3456  -32.0670 C   0  0  0  0  0  0
  -19.7032   -6.8950  -30.6272 C   0  0  0  0  0  0
  -19.8745   -5.7964  -29.5771 C   0  0  0  0  0  0
  -18.9115   -5.4520  -28.8965 O   0  0  0  0  0  0
  -21.0973   -5.2475  -29.4629 N   0  0  0  0  0  0
  -21.4747   -4.2128  -28.4950 C   0  0  1  0  0  0
  -22.8295   -3.5754  -28.8947 C   0  0  0  0  0  0
  -22.7847   -2.6539  -30.1423 C   0  0  0  0  0  0
  -24.0720   -1.8091  -30.2515 C   0  0  0  0  0  0
  -22.5063   -3.4061  -31.4618 C   0  0  0  0  0  0
  -21.5343   -4.8159  -27.0780 C   0  0  0  0  0  0
  -22.1736   -5.8514  -26.8916 O   0  0  0  0  0  0
  -20.8385   -4.1731  -26.1224 N   0  0  0  0  0  0
  -20.4869   -4.7321  -24.8044 C   0  0  1  0  0  0
  -18.9619   -4.6433  -24.5507 C   0  0  0  0  0  0
  -18.1492   -5.6599  -25.3957 C   0  0  2  0  0  0
  -18.2692   -7.1160  -24.9651 C   0  0  0  0  0  0
  -16.9050   -7.7026  -25.2746 C   0  0  0  0  0  0
  -16.0319   -6.5414  -25.2277 N   0  0  0  0  0  0
  -16.6474   -5.3546  -25.3560 C   0  0  0  0  0  0
  -16.1233   -4.2521  -25.4930 O   0  0  0  0  0  0
  -21.3058   -3.9774  -23.7562 C   0  0  0  0  0  0
  -20.7995   -3.0605  -23.1002 O   0  0  0  0  0  0
  -22.6815   -4.4158  -23.4965 C   0  0  0  0  0  0
  -23.2316   -5.5120  -23.9481 N   0  0  0  0  0  0
  -24.4994   -5.6750  -23.4965 C   0  0  0  0  0  0
  -25.3305   -6.7558  -23.8262 C   0  0  0  0  0  0
  -26.6138   -6.7950  -23.2790 C   0  0  0  0  0  0
  -27.0696   -5.7827  -22.4342 C   0  0  0  0  0  0
  -26.2625   -4.6922  -22.0995 C   0  0  0  0  0  0
  -24.9709   -4.6490  -22.6399 C   0  0  0  0  0  0
  -23.7017   -3.4505  -22.4401 S   0  0  0  0  0  0
  -18.1668   -7.8565  -33.4899 C   0  0  0  0  0  0
  -18.0154   -8.8917  -34.4075 C   0  0  0  0  0  0
  -17.9839  -11.7139  -37.1607 H   0  0  0  0  0  0
  -17.3505  -10.0877  -36.9352 H   0  0  0  0  0  0
  -17.1653  -11.3112  -35.6539 H   0  0  0  0  0  0
  -21.2890   -9.6100  -34.9511 H   0  0  0  0  0  0
  -21.5540   -7.8141  -33.2840 H   0  0  0  0  0  0
  -20.5113   -5.7747  -32.3210 H   0  0  0  0  0  0
  -18.7822   -5.6456  -32.1660 H   0  0  0  0  0  0
  -18.7875   -7.4502  -30.4072 H   0  0  0  0  0  0
  -20.5154   -7.6207  -30.5296 H   0  0  0  0  0  0
  -21.8464   -5.5884  -30.0459 H   0  0  0  0  0  0
  -20.7113   -3.4343  -28.5131 H   0  0  0  0  0  0
  -23.1605   -2.9653  -28.0505 H   0  0  0  0  0  0
  -23.5952   -4.3444  -29.0150 H   0  0  0  0  0  0
  -21.9681   -1.9455  -29.9911 H   0  0  0  0  0  0
  -23.8328   -0.7468  -30.3242 H   0  0  0  0  0  0
  -24.6721   -2.0672  -31.1256 H   0  0  0  0  0  0
  -24.7201   -1.9299  -29.3826 H   0  0  0  0  0  0
  -23.0136   -2.9573  -32.3151 H   0  0  0  0  0  0
  -21.4411   -3.3955  -31.6926 H   0  0  0  0  0  0
  -22.8286   -4.4464  -31.4122 H   0  0  0  0  0  0
  -20.3626   -3.3182  -26.3757 H   0  0  0  0  0  0
  -20.7501   -5.7923  -24.7520 H   0  0  0  0  0  0
  -18.7545   -4.8176  -23.4935 H   0  0  0  0  0  0
  -18.6268   -3.6233  -24.7538 H   0  0  0  0  0  0
  -18.4339   -5.5584  -26.4414 H   0  0  0  0  0  0
  -19.0789   -7.6554  -25.4611 H   0  0  0  0  0  0
  -18.4570   -7.1819  -23.8931 H   0  0  0  0  0  0
  -16.8670   -8.1511  -26.2703 H   0  0  0  0  0  0
  -16.5976   -8.4558  -24.5471 H   0  0  0  0  0  0
  -15.0259   -6.6463  -25.3577 H   0  0  0  0  0  0
  -24.9816   -7.5412  -24.4803 H   0  0  0  0  0  0
  -27.2702   -7.6208  -23.5164 H   0  0  0  0  0  0
  -28.0729   -5.8530  -22.0382 H   0  0  0  0  0  0
  -26.6184   -3.9056  -21.4486 H   0  0  0  0  0  0
  -17.2873   -7.3713  -33.0930 H   0  0  0  0  0  0
  -17.0159   -9.1738  -34.6996 H   0  0  0  0  0  0
  1  2  1  0  0  0
  1 41  1  0  0  0
  1 42  1  0  0  0
  1 43  1  0  0  0
  2  3  1  0  0  0
  3 40  1  0  0  0
  3  4  2  0  0  0
  4  5  1  0  0  0
  4 44  1  0  0  0
  5  6  2  0  0  0
  5 45  1  0  0  0
  6  7  1  0  0  0
  6 39  1  0  0  0
  7  8  1  0  0  0
  7 46  1  0  0  0
  7 47  1  0  0  0
  8  9  1  0  0  0
  8 48  1  0  0  0
  8 49  1  0  0  0
  9 10  2  0  0  0
  9 11  1  0  0  0
 11 12  1  0  0  0
 11 50  1  0  0  0
 12 13  1  0  0  0
 12 17  1  0  0  0
 12 51  1  0  0  0
 13 14  1  0  0  0
 13 52  1  0  0  0
 13 53  1  0  0  0
 14 15  1  0  0  0
 14 16  1  0  0  0
 14 54  1  0  0  0
 15 55  1  0  0  0
 15 56  1  0  0  0
 15 57  1  0  0  0
 16 58  1  0  0  0
 16 59  1  0  0  0
 16 60  1  0  0  0
 17 18  2  0  0  0
 17 19  1  0  0  0
 19 20  1  0  0  0
 19 61  1  0  0  0
 20 21  1  0  0  0
 20 28  1  0  0  0
 20 62  1  0  0  0
 21 22  1  0  0  0
 21 63  1  0  0  0
 21 64  1  0  0  0
 22 26  1  0  0  0
 22 23  1  0  0  0
 22 65  1  0  0  0
 23 24  1  0  0  0
 23 66  1  0  0  0
 23 67  1  0  0  0
 24 25  1  0  0  0
 24 68  1  0  0  0
 24 69  1  0  0  0
 25 26  1  0  0  0
 25 70  1  0  0  0
 26 27  2  0  0  0
 28 29  2  0  0  0
 28 30  1  0  0  0
 30 38  1  0  0  0
 30 31  2  0  0  0
 31 32  1  0  0  0
 32 37  2  0  0  0
 32 33  1  0  0  0
 33 34  2  0  0  0
 33 71  1  0  0  0
 34 35  1  0  0  0
 34 72  1  0  0  0
 35 36  2  0  0  0
 35 73  1  0  0  0
 36 37  1  0  0  0
 36 74  1  0  0  0
 37 38  1  0  0  0
 39 40  2  0  0  0
 39 75  1  0  0  0
 40 76  1  0  0  0
M  END
$$$$
