
                    3D
 Schrodinger Suite 2019-4.
 91 91  0  0  1  0            999 V2000
  -16.7113   -8.7423  -26.0334 C   0  0  0  0  0  0
  -16.5790   -7.2506  -26.3304 C   0  0  0  0  0  0
  -16.9629   -6.3788  -25.1333 C   0  0  0  0  0  0
  -16.7515   -4.9509  -25.4093 N   0  0  0  0  0  0
  -15.5811   -4.3643  -24.8022 C   0  0  0  0  0  0
  -14.4141   -4.3262  -25.7762 C   0  0  0  0  0  0
  -13.1738   -3.8158  -25.0888 C   0  0  0  0  0  0
  -17.5887   -4.1619  -26.1029 C   0  0  0  0  0  0
  -17.3441   -2.9906  -26.3923 O   0  0  0  0  0  0
  -18.9433   -4.7126  -26.4752 C   0  0  0  0  0  0
  -19.9382   -4.4130  -25.3316 C   0  0  0  0  0  0
  -21.4203   -4.4492  -25.7411 C   0  0  2  0  0  0
  -21.5277   -4.1473  -27.1562 N   0  0  0  0  0  0
  -22.0205   -4.9406  -28.1028 C   0  0  0  0  0  0
  -22.5355   -6.0373  -27.8844 O   0  0  0  0  0  0
  -21.9047   -4.3667  -29.5107 C   0  0  2  0  0  0
  -23.3107   -3.8766  -29.9009 C   0  0  0  0  0  0
  -23.4593   -3.3223  -31.3254 C   0  0  0  0  0  0
  -22.3527   -2.3348  -31.7188 C   0  0  0  0  0  0
  -24.8494   -2.6936  -31.4648 C   0  0  0  0  0  0
  -21.4514   -5.4215  -30.4040 N   0  0  0  0  0  0
  -20.1712   -5.7830  -30.5724 C   0  0  0  0  0  0
  -19.2256   -5.1847  -30.0568 O   0  0  0  0  0  0
  -19.9452   -7.0307  -31.4365 C   0  0  1  0  0  0
  -19.0531   -6.6890  -32.5374 N   0  0  0  0  0  0
  -19.4930   -6.3533  -33.8008 C   0  0  0  0  0  0
  -20.6675   -6.2781  -34.1530 O   0  0  0  0  0  0
  -18.4384   -6.1700  -34.6108 O   0  0  0  0  0  0
  -18.6387   -6.0977  -36.0176 C   0  0  0  0  0  0
  -18.8138   -7.4775  -36.6282 C   0  0  0  0  0  0
  -17.6903   -8.1753  -37.1124 C   0  0  0  0  0  0
  -17.8296   -9.4824  -37.6170 C   0  0  0  0  0  0
  -19.0978  -10.0941  -37.6476 C   0  0  0  0  0  0
  -20.2281   -9.3922  -37.1870 C   0  0  0  0  0  0
  -20.0862   -8.0860  -36.6829 C   0  0  0  0  0  0
  -19.3640   -8.2261  -30.6275 C   0  0  0  0  0  0
  -20.3040   -8.6691  -29.4916 C   0  0  0  0  0  0
  -17.9375   -8.0342  -30.0854 C   0  0  0  0  0  0
  -22.2209   -3.4133  -24.9366 C   0  0  0  0  0  0
  -22.2324   -3.4108  -23.7047 O   0  0  0  0  0  0
  -23.0445   -2.3767  -25.7145 C   0  0  0  0  0  0
  -22.2799   -1.6294  -26.5090 F   0  0  0  0  0  0
  -23.9265   -3.0164  -26.4677 F   0  0  0  0  0  0
  -23.6825   -1.5654  -24.8777 F   0  0  0  0  0  0
  -16.4236   -9.3323  -26.9033 H   0  0  0  0  0  0
  -16.0688   -9.0406  -25.2049 H   0  0  0  0  0  0
  -17.7367   -9.0069  -25.7769 H   0  0  0  0  0  0
  -17.1825   -7.0057  -27.2007 H   0  0  0  0  0  0
  -15.5482   -7.0508  -26.6012 H   0  0  0  0  0  0
  -16.3565   -6.7120  -24.2952 H   0  0  0  0  0  0
  -17.9891   -6.5754  -24.8250 H   0  0  0  0  0  0
  -15.3235   -4.9465  -23.9379 H   0  0  0  0  0  0
  -15.8041   -3.3795  -24.4038 H   0  0  0  0  0  0
  -14.6463   -3.7161  -26.6493 H   0  0  0  0  0  0
  -14.2076   -5.3334  -26.1216 H   0  0  0  0  0  0
  -12.7980   -2.9092  -25.5573 H   0  0  0  0  0  0
  -13.4180   -3.5805  -24.0735 H   0  0  0  0  0  0
  -12.3960   -4.5741  -25.0292 H   0  0  0  0  0  0
  -18.9494   -5.7699  -26.7320 H   0  0  0  0  0  0
  -19.1661   -4.1897  -27.4032 H   0  0  0  0  0  0
  -19.6901   -3.4603  -24.8712 H   0  0  0  0  0  0
  -19.7892   -5.1348  -24.5283 H   0  0  0  0  0  0
  -21.8189   -5.4441  -25.5429 H   0  0  0  0  0  0
  -21.1511   -3.2565  -27.4514 H   0  0  0  0  0  0
  -21.1976   -3.5339  -29.5195 H   0  0  0  0  0  0
  -23.6043   -3.0947  -29.1977 H   0  0  0  0  0  0
  -24.0400   -4.6788  -29.7700 H   0  0  0  0  0  0
  -23.3965   -4.1539  -32.0223 H   0  0  0  0  0  0
  -22.4857   -2.0081  -32.7460 H   0  0  0  0  0  0
  -22.3359   -1.4574  -31.0713 H   0  0  0  0  0  0
  -21.3756   -2.8116  -31.6888 H   0  0  0  0  0  0
  -25.0215   -2.3195  -32.4641 H   0  0  0  0  0  0
  -25.6339   -3.4188  -31.2482 H   0  0  0  0  0  0
  -24.9723   -1.8508  -30.7836 H   0  0  0  0  0  0
  -22.1712   -5.9898  -30.8324 H   0  0  0  0  0  0
  -20.9047   -7.3544  -31.8442 H   0  0  0  0  0  0
  -18.0537   -6.6702  -32.3791 H   0  0  0  0  0  0
  -17.7600   -5.6292  -36.4595 H   0  0  0  0  0  0
  -19.4892   -5.4610  -36.2658 H   0  0  0  0  0  0
  -16.7185   -7.7097  -37.0968 H   0  0  0  0  0  0
  -16.9640  -10.0141  -37.9838 H   0  0  0  0  0  0
  -19.2055  -11.0966  -38.0350 H   0  0  0  0  0  0
  -21.2042   -9.8535  -37.2182 H   0  0  0  0  0  0
  -20.9593   -7.5591  -36.3308 H   0  0  0  0  0  0
  -19.3142   -9.0650  -31.3237 H   0  0  0  0  0  0
  -19.9592   -9.5981  -29.0368 H   0  0  0  0  0  0
  -20.3631   -7.9230  -28.6988 H   0  0  0  0  0  0
  -21.3155   -8.8409  -29.8606 H   0  0  0  0  0  0
  -17.5830   -8.9397  -29.5925 H   0  0  0  0  0  0
  -17.2244   -7.8037  -30.8745 H   0  0  0  0  0  0
  -17.9087   -7.2382  -29.3475 H   0  0  0  0  0  0
  1  2  1  0  0  0
  1 45  1  0  0  0
  1 46  1  0  0  0
  1 47  1  0  0  0
  2  3  1  0  0  0
  2 48  1  0  0  0
  2 49  1  0  0  0
  3  4  1  0  0  0
  3 50  1  0  0  0
  3 51  1  0  0  0
  4  5  1  0  0  0
  4  8  1  0  0  0
  5  6  1  0  0  0
  5 52  1  0  0  0
  5 53  1  0  0  0
  6  7  1  0  0  0
  6 54  1  0  0  0
  6 55  1  0  0  0
  7 56  1  0  0  0
  7 57  1  0  0  0
  7 58  1  0  0  0
  8  9  2  0  0  0
  8 10  1  0  0  0
 10 11  1  0  0  0
 10 59  1  0  0  0
 10 60  1  0  0  0
 11 12  1  0  0  0
 11 61  1  0  0  0
 11 62  1  0  0  0
 12 13  1  0  0  0
 12 39  1  0  0  0
 12 63  1  0  0  0
 13 14  1  0  0  0
 13 64  1  0  0  0
 14 15  2  0  0  0
 14 16  1  0  0  0
 16 17  1  0  0  0
 16 21  1  0  0  0
 16 65  1  0  0  0
 17 18  1  0  0  0
 17 66  1  0  0  0
 17 67  1  0  0  0
 18 19  1  0  0  0
 18 20  1  0  0  0
 18 68  1  0  0  0
 19 69  1  0  0  0
 19 70  1  0  0  0
 19 71  1  0  0  0
 20 72  1  0  0  0
 20 73  1  0  0  0
 20 74  1  0  0  0
 21 22  1  0  0  0
 21 75  1  0  0  0
 22 23  2  0  0  0
 22 24  1  0  0  0
 24 25  1  0  0  0
 24 36  1  0  0  0
 24 76  1  0  0  0
 25 26  1  0  0  0
 25 77  1  0  0  0
 26 27  2  0  0  0
 26 28  1  0  0  0
 28 29  1  0  0  0
 29 30  1  0  0  0
 29 78  1  0  0  0
 29 79  1  0  0  0
 30 35  1  0  0  0
 30 31  2  0  0  0
 31 32  1  0  0  0
 31 80  1  0  0  0
 32 33  2  0  0  0
 32 81  1  0  0  0
 33 34  1  0  0  0
 33 82  1  0  0  0
 34 35  2  0  0  0
 34 83  1  0  0  0
 35 84  1  0  0  0
 36 37  1  0  0  0
 36 38  1  0  0  0
 36 85  1  0  0  0
 37 86  1  0  0  0
 37 87  1  0  0  0
 37 88  1  0  0  0
 38 89  1  0  0  0
 38 90  1  0  0  0
 38 91  1  0  0  0
 39 40  2  0  0  0
 39 41  1  0  0  0
 41 42  1  0  0  0
 41 43  1  0  0  0
 41 44  1  0  0  0
M  END
$$$$
