@<TRIPOS>MOLECULE
*****
 91 91 0 0 0
SMALL
GASTEIGER
****
Schrodinger Suite 2019-4.
@<TRIPOS>ATOM
      1 C         -16.7113   -8.7423  -26.0334 C.3     1  UNL1       -0.0639
      2 C         -16.5790   -7.2506  -26.3304 C.3     1  UNL1       -0.0400
      3 C         -16.9629   -6.3788  -25.1333 C.3     1  UNL1        0.0144
      4 N         -16.7515   -4.9509  -25.4093 N.am    1  UNL1       -0.3015
      5 C         -15.5811   -4.3643  -24.8022 C.3     1  UNL1        0.0144
      6 C         -14.4141   -4.3262  -25.7762 C.3     1  UNL1       -0.0400
      7 C         -13.1738   -3.8158  -25.0888 C.3     1  UNL1       -0.0639
      8 C         -17.5887   -4.1619  -26.1029 C.2     1  UNL1        0.2156
      9 O         -17.3441   -2.9906  -26.3923 O.2     1  UNL1       -0.2756
     10 C         -18.9433   -4.7126  -26.4752 C.3     1  UNL1        0.0262
     11 C         -19.9382   -4.4130  -25.3316 C.3     1  UNL1       -0.0190
     12 C         -21.4203   -4.4492  -25.7411 C.3     1  UNL1        0.0909
     13 N         -21.5277   -4.1473  -27.1562 N.am    1  UNL1       -0.3038
     14 C         -22.0205   -4.9406  -28.1028 C.2     1  UNL1        0.2339
     15 O         -22.5355   -6.0373  -27.8844 O.2     1  UNL1       -0.2738
     16 C         -21.9047   -4.3667  -29.5107 C.3     1  UNL1        0.0996
     17 C         -23.3107   -3.8766  -29.9009 C.3     1  UNL1       -0.0236
     18 C         -23.4593   -3.3223  -31.3254 C.3     1  UNL1       -0.0446
     19 C         -22.3527   -2.3348  -31.7188 C.3     1  UNL1       -0.0626
     20 C         -24.8494   -2.6936  -31.4648 C.3     1  UNL1       -0.0626
     21 N         -21.4514   -5.4215  -30.4040 N.am    1  UNL1       -0.3025
     22 C         -20.1712   -5.7830  -30.5724 C.2     1  UNL1        0.2343
     23 O         -19.2256   -5.1847  -30.0568 O.2     1  UNL1       -0.2738
     24 C         -19.9452   -7.0307  -31.4365 C.3     1  UNL1        0.1048
     25 N         -19.0531   -6.6890  -32.5374 N.am    1  UNL1       -0.2696
     26 C         -19.4930   -6.3533  -33.8008 C.2     1  UNL1        0.4012
     27 O         -20.6675   -6.2781  -34.1530 O.2     1  UNL1       -0.2265
     28 O         -18.4384   -6.1700  -34.6108 O.3     1  UNL1       -0.4456
     29 C         -18.6387   -6.0977  -36.0176 C.3     1  UNL1        0.1191
     30 C         -18.8138   -7.4775  -36.6282 C.ar    1  UNL1       -0.0103
     31 C         -17.6903   -8.1753  -37.1124 C.ar    1  UNL1       -0.0554
     32 C         -17.8296   -9.4824  -37.6170 C.ar    1  UNL1       -0.0614
     33 C         -19.0978  -10.0941  -37.6476 C.ar    1  UNL1       -0.0617
     34 C         -20.2281   -9.3922  -37.1870 C.ar    1  UNL1       -0.0614
     35 C         -20.0862   -8.0860  -36.6829 C.ar    1  UNL1       -0.0554
     36 C         -19.3640   -8.2261  -30.6275 C.3     1  UNL1       -0.0196
     37 C         -20.3040   -8.6691  -29.4916 C.3     1  UNL1       -0.0605
     38 C         -17.9375   -8.0342  -30.0854 C.3     1  UNL1       -0.0605
     39 C         -22.2209   -3.4133  -24.9366 C.2     1  UNL1        0.2553
     40 O         -22.2324   -3.4108  -23.7047 O.2     1  UNL1       -0.2860
     41 C         -23.0445   -2.3767  -25.7145 C.3     1  UNL1        0.4525
     42 F         -22.2799   -1.6294  -26.5090 F       1  UNL1       -0.1633
     43 F         -23.9265   -3.0164  -26.4677 F       1  UNL1       -0.1633
     44 F         -23.6825   -1.5654  -24.8777 F       1  UNL1       -0.1633
     45 H         -16.4236   -9.3323  -26.9033 H       1  UNL1        0.0230
     46 H         -16.0688   -9.0406  -25.2049 H       1  UNL1        0.0230
     47 H         -17.7367   -9.0069  -25.7769 H       1  UNL1        0.0230
     48 H         -17.1825   -7.0057  -27.2007 H       1  UNL1        0.0278
     49 H         -15.5482   -7.0508  -26.6012 H       1  UNL1        0.0278
     50 H         -16.3565   -6.7120  -24.2952 H       1  UNL1        0.0464
     51 H         -17.9891   -6.5754  -24.8250 H       1  UNL1        0.0464
     52 H         -15.3235   -4.9465  -23.9379 H       1  UNL1        0.0464
     53 H         -15.8041   -3.3795  -24.4038 H       1  UNL1        0.0464
     54 H         -14.6463   -3.7161  -26.6493 H       1  UNL1        0.0278
     55 H         -14.2076   -5.3334  -26.1216 H       1  UNL1        0.0278
     56 H         -12.7980   -2.9092  -25.5573 H       1  UNL1        0.0230
     57 H         -13.4180   -3.5805  -24.0735 H       1  UNL1        0.0230
     58 H         -12.3960   -4.5741  -25.0292 H       1  UNL1        0.0230
     59 H         -18.9494   -5.7699  -26.7320 H       1  UNL1        0.0359
     60 H         -19.1661   -4.1897  -27.4032 H       1  UNL1        0.0359
     61 H         -19.6901   -3.4603  -24.8712 H       1  UNL1        0.0292
     62 H         -19.7892   -5.1348  -24.5283 H       1  UNL1        0.0292
     63 H         -21.8189   -5.4441  -25.5429 H       1  UNL1        0.0580
     64 H         -21.1511   -3.2565  -27.4514 H       1  UNL1        0.1494
     65 H         -21.1976   -3.5339  -29.5195 H       1  UNL1        0.0594
     66 H         -23.6043   -3.0947  -29.1977 H       1  UNL1        0.0290
     67 H         -24.0400   -4.6788  -29.7700 H       1  UNL1        0.0290
     68 H         -23.3965   -4.1539  -32.0223 H       1  UNL1        0.0296
     69 H         -22.4857   -2.0081  -32.7460 H       1  UNL1        0.0232
     70 H         -22.3359   -1.4574  -31.0713 H       1  UNL1        0.0232
     71 H         -21.3756   -2.8116  -31.6888 H       1  UNL1        0.0232
     72 H         -25.0215   -2.3195  -32.4641 H       1  UNL1        0.0232
     73 H         -25.6339   -3.4188  -31.2482 H       1  UNL1        0.0232
     74 H         -24.9723   -1.8508  -30.7836 H       1  UNL1        0.0232
     75 H         -22.1712   -5.9898  -30.8324 H       1  UNL1        0.1495
     76 H         -20.9047   -7.3544  -31.8442 H       1  UNL1        0.0598
     77 H         -18.0537   -6.6702  -32.3791 H       1  UNL1        0.1528
     78 H         -17.7600   -5.6292  -36.4595 H       1  UNL1        0.0749
     79 H         -19.4892   -5.4610  -36.2658 H       1  UNL1        0.0749
     80 H         -16.7185   -7.7097  -37.0968 H       1  UNL1        0.0621
     81 H         -16.9640  -10.0141  -37.9838 H       1  UNL1        0.0618
     82 H         -19.2055  -11.0966  -38.0350 H       1  UNL1        0.0618
     83 H         -21.2042   -9.8535  -37.2182 H       1  UNL1        0.0618
     84 H         -20.9593   -7.5591  -36.3308 H       1  UNL1        0.0621
     85 H         -19.3142   -9.0650  -31.3237 H       1  UNL1        0.0318
     86 H         -19.9592   -9.5981  -29.0368 H       1  UNL1        0.0233
     87 H         -20.3631   -7.9230  -28.6988 H       1  UNL1        0.0233
     88 H         -21.3155   -8.8409  -29.8606 H       1  UNL1        0.0233
     89 H         -17.5830   -8.9397  -29.5925 H       1  UNL1        0.0233
     90 H         -17.2244   -7.8037  -30.8745 H       1  UNL1        0.0233
     91 H         -17.9087   -7.2382  -29.3475 H       1  UNL1        0.0233
@<TRIPOS>BOND
     1     1     2    1
     2     1    45    1
     3     1    46    1
     4     1    47    1
     5     2     3    1
     6     2    48    1
     7     2    49    1
     8     3     4    1
     9     3    50    1
    10     3    51    1
    11     4     5    1
    12     4     8   am
    13     5     6    1
    14     5    52    1
    15     5    53    1
    16     6     7    1
    17     6    54    1
    18     6    55    1
    19     7    56    1
    20     7    57    1
    21     7    58    1
    22     8     9    2
    23     8    10    1
    24    10    11    1
    25    10    59    1
    26    10    60    1
    27    11    12    1
    28    11    61    1
    29    11    62    1
    30    12    13    1
    31    12    39    1
    32    12    63    1
    33    13    14   am
    34    13    64    1
    35    14    15    2
    36    14    16    1
    37    16    17    1
    38    16    21    1
    39    16    65    1
    40    17    18    1
    41    17    66    1
    42    17    67    1
    43    18    19    1
    44    18    20    1
    45    18    68    1
    46    19    69    1
    47    19    70    1
    48    19    71    1
    49    20    72    1
    50    20    73    1
    51    20    74    1
    52    21    22   am
    53    21    75    1
    54    22    23    2
    55    22    24    1
    56    24    25    1
    57    24    36    1
    58    24    76    1
    59    25    26   am
    60    25    77    1
    61    26    27    2
    62    26    28    1
    63    28    29    1
    64    29    30    1
    65    29    78    1
    66    29    79    1
    67    30    35   ar
    68    30    31   ar
    69    31    32   ar
    70    31    80    1
    71    32    33   ar
    72    32    81    1
    73    33    34   ar
    74    33    82    1
    75    34    35   ar
    76    34    83    1
    77    35    84    1
    78    36    37    1
    79    36    38    1
    80    36    85    1
    81    37    86    1
    82    37    87    1
    83    37    88    1
    84    38    89    1
    85    38    90    1
    86    38    91    1
    87    39    40    2
    88    39    41    1
    89    41    42    1
    90    41    43    1
    91    41    44    1
