@<TRIPOS>MOLECULE
/home/lixiaoshuang.lxs/med/data/m_pro/PDB_BA/2zu4/2zu4_ligand.pdb
 44 45 0 0 0
SMALL
GASTEIGER

@<TRIPOS>ATOM
      1  C17       18.6600    3.4790   20.0370 C.2   501  ZU3501      0.4219
      2  O19       19.7990    2.9160   20.0120 O.2   501  ZU3501     -0.2245
      3  O15       18.2660    4.3990   19.0560 O.3   501  ZU3501     -0.4285
      4  C13       19.3390    4.8390   18.1670 C.3   501  ZU3501      0.2368
      5  C4        19.9970    6.0550   18.7750 C.ar  501  ZU3501      0.0213
      6  C6        19.3500    7.3900   18.6490 C.ar  501  ZU3501     -0.0007
      7  C8        19.9390    8.4700   19.1960 C.ar  501  ZU3501     -0.0002
      8  C10       21.2410    8.3390   19.9340 C.ar  501  ZU3501     -0.0000
      9  C1        21.8400    7.1220   20.0550 C.ar  501  ZU3501     -0.0002
     10  C2        21.1940    5.9250   19.4490 C.ar  501  ZU3501     -0.0007
     11  N21       17.7240    3.1830   21.0410 N.am  501  ZU3501     -0.1592
     12  C23       18.0030    2.2150   22.0920 C.3   501  ZU3501      0.1976
     13  C25       17.6460    2.8140   23.4540 C.3   501  ZU3501      0.1462
     14  N27       18.2720    4.1420   23.6240 N.am  501  ZU3501     -0.2031
     15  C29       19.6470    4.2130   24.0990 C.2   501  ZU3501      0.2405
     16  C31       17.2620    0.9280   21.7820 C.2   501  ZU3501      0.2635
     17  O35       15.9720    0.9030   21.7850 O.2   501  ZU3501     -0.2714
     18  O43       20.2660    3.1440   24.3540 O.2   501  ZU3501     -0.2734
     19  C45       20.3550    5.5430   24.3040 C.3   501  ZU3501      0.0705
     20  C76       20.8240    5.6600   25.7600 C.3   501  ZU3501      0.0091
     21  C78       19.4070    6.7330   23.9340 C.3   501  ZU3501      0.0091
     22  C80       21.5430    5.6270   23.3500 C.3   501  ZU3501      0.0091
     23  N33       18.0140   -0.2830   21.5650 N.am  501  ZU3501     -0.1963
     24  C37       17.3210   -1.5500   21.3580 C.3   501  ZU3501      0.1728
     25  C39       16.5150   -1.8760   22.5960 C.2   501  ZU3501      0.2612
     26  O47       16.9790   -1.5390   23.7230 O.2   501  ZU3501     -0.2715
     27  C41       18.3680   -2.6430   20.9160 C.3   501  ZU3501      0.0311
     28  C51       19.1760   -2.4540   19.5860 C.3   501  ZU3501      0.0022
     29  C53       20.0980   -3.6290   19.1910 C.3   501  ZU3501      0.0001
     30  C55       18.2010   -2.2060   18.4160 C.3   501  ZU3501      0.0001
     31  N49       15.2530   -2.5410   22.5430 N.am  501  ZU3501     -0.2057
     32  C57       14.5130   -2.8160   23.7590 C.3   501  ZU3501      0.0963
     33  C59       13.2400   -1.8030   23.8120 C.3   501  ZU3501      0.0309
     34  C61       13.5660   -0.3700   24.2540 C.3   501  ZU3501      0.0817
     35  C63       14.1310   -4.2750   23.6840 C.3   501  ZU3501      0.0294
     36  C65       12.3400    0.4760   24.3300 C.2   501  ZU3501      0.2410
     37  O66       11.4050    0.4110   23.5110 O.2   501  ZU3501     -0.2734
     38  N69       12.3810    1.3650   25.4460 N.am  501  ZU3501     -0.2054
     39  C71       13.6310    1.2240   26.2090 C.3   501  ZU3501      0.1156
     40  C73       14.1780   -0.1600   25.7240 C.3   501  ZU3501      0.0326
     41  C82       15.4240   -5.1710   23.7600 C.3   501  ZU3501      0.0663
     42  C84       15.2030   -6.3770   24.6720 C.2   501  ZU3501      0.1511
     43  C86       16.3600   -7.3390   24.9940 C.3   501  ZU3501      0.0722
     44  O88       14.1000   -6.6180   25.1140 O.2   501  ZU3501     -0.2960
@<TRIPOS>BOND
     1     4     5    1
     2     4     3    1
     3    30    28    1
     4     6     5   ar
     5     6     7   ar
     6     5    10   ar
     7     3     1    1
     8    29    28    1
     9     7     8   ar
    10    10     9   ar
    11    28    27    1
    12     8     9   ar
    13     2     1    2
    14     1    11   am
    15    27    24    1
    16    11    12    1
    17    24    23    1
    18    24    25    1
    19    23    16   am
    20    16    17    2
    21    16    12    1
    22    12    13    1
    23    31    25   am
    24    31    32    1
    25    25    26    2
    26    22    19    1
    27    13    14    1
    28    37    36    2
    29    14    15   am
    30    35    32    1
    31    35    41    1
    32    32    33    1
    33    41    42    1
    34    33    34    1
    35    21    19    1
    36    15    19    1
    37    15    18    2
    38    34    36    1
    39    34    40    1
    40    19    20    1
    41    36    38   am
    42    42    43    1
    43    42    44    2
    44    38    39    1
    45    40    39    1
