
                    3D
 Schrodinger Suite 2019-4.
 68 72  0  0  1  0            999 V2000
  -22.6435   -4.6130  -31.0653 C   0  0  0  0  0  0
  -23.2967   -4.0980  -29.7823 C   0  0  0  0  0  0
  -23.4714   -2.5787  -29.8738 C   0  0  0  0  0  0
  -24.6717   -4.7688  -29.6198 C   0  0  0  0  0  0
  -22.4318   -4.5120  -28.6777 N   0  0  0  0  0  0
  -22.6864   -4.6913  -27.3666 C   0  0  0  0  0  0
  -23.7049   -4.3071  -26.7917 O   0  0  0  0  0  0
  -21.6265   -5.4905  -26.5734 C   0  0  2  0  0  0
  -21.1803   -4.5051  -25.5512 C   0  0  0  0  0  0
  -20.2793   -3.4205  -25.7784 C   0  0  0  0  0  0
  -19.6380   -3.0464  -24.6394 C   0  0  0  0  0  0
  -20.3287   -3.8360  -23.2725 S   0  0  0  0  0  0
  -21.4863   -4.6613  -24.2377 C   0  0  0  0  0  0
  -20.4158   -6.0359  -27.2649 N   0  0  0  0  0  0
  -20.5058   -6.5730  -28.5077 C   0  0  0  0  0  0
  -21.5555   -7.0297  -28.9614 O   0  0  0  0  0  0
  -19.2707   -6.6779  -29.3931 C   0  0  0  0  0  0
  -19.4675   -7.7017  -30.3816 N   0  0  0  0  0  0
  -19.5042   -9.0169  -30.0261 N   0  0  0  0  0  0
  -19.7841   -9.7145  -31.0861 N   0  0  0  0  0  0
  -19.9150   -8.8384  -32.1537 C   0  0  0  0  0  0
  -20.2163   -9.0402  -33.5178 C   0  0  0  0  0  0
  -20.2737   -7.9397  -34.4021 C   0  0  0  0  0  0
  -20.0340   -6.6280  -33.9369 C   0  0  0  0  0  0
  -19.7564   -6.4060  -32.5780 C   0  0  0  0  0  0
  -19.6963   -7.5152  -31.7199 C   0  0  0  0  0  0
  -19.1472   -6.0064  -26.5759 C   0  0  0  0  0  0
  -18.6240   -7.1452  -25.9281 C   0  0  0  0  0  0
  -17.3648   -7.0933  -25.2837 C   0  0  0  0  0  0
  -16.6124   -5.8982  -25.2443 C   0  0  0  0  0  0
  -15.3056   -5.9339  -24.6574 N   0  0  0  0  0  0
  -14.2906   -5.0555  -24.8021 C   0  0  0  0  0  0
  -14.4528   -3.9191  -25.2379 O   0  0  0  0  0  0
  -12.9424   -5.4335  -24.2356 C   0  0  0  0  0  0
  -11.8712   -6.1967  -25.0044 C   0  0  0  0  0  0
  -12.6033   -6.8859  -23.9185 C   0  0  0  0  0  0
  -17.1651   -4.7537  -25.8580 C   0  0  0  0  0  0
  -18.3916   -4.8186  -26.5272 C   0  0  0  0  0  0
  -22.6442   -5.6980  -31.0856 H   0  0  0  0  0  0
  -23.1709   -4.2669  -31.9550 H   0  0  0  0  0  0
  -21.6117   -4.2841  -31.1313 H   0  0  0  0  0  0
  -24.0655   -2.2164  -29.0401 H   0  0  0  0  0  0
  -22.5135   -2.0699  -29.8537 H   0  0  0  0  0  0
  -23.9912   -2.2891  -30.7864 H   0  0  0  0  0  0
  -25.1726   -4.4341  -28.7106 H   0  0  0  0  0  0
  -25.3281   -4.5327  -30.4583 H   0  0  0  0  0  0
  -24.5868   -5.8548  -29.5652 H   0  0  0  0  0  0
  -21.5193   -4.8217  -28.9748 H   0  0  0  0  0  0
  -22.1301   -6.3331  -26.1030 H   0  0  0  0  0  0
  -19.9960   -3.1024  -26.7678 H   0  0  0  0  0  0
  -18.8049   -2.3732  -24.5263 H   0  0  0  0  0  0
  -22.1925   -5.3493  -23.8025 H   0  0  0  0  0  0
  -18.3565   -6.8617  -28.8632 H   0  0  0  0  0  0
  -19.1323   -5.7211  -29.8981 H   0  0  0  0  0  0
  -20.3927  -10.0394  -33.8869 H   0  0  0  0  0  0
  -20.4914   -8.1039  -35.4477 H   0  0  0  0  0  0
  -20.0579   -5.7967  -34.6247 H   0  0  0  0  0  0
  -19.5819   -5.4069  -32.2066 H   0  0  0  0  0  0
  -19.1693   -8.0742  -25.9570 H   0  0  0  0  0  0
  -16.9694   -7.9909  -24.8307 H   0  0  0  0  0  0
  -15.0670   -6.7949  -24.1871 H   0  0  0  0  0  0
  -12.4688   -4.6235  -23.7072 H   0  0  0  0  0  0
  -10.8376   -5.9307  -24.7985 H   0  0  0  0  0  0
  -12.0258   -6.5725  -26.0051 H   0  0  0  0  0  0
  -12.0030   -7.1153  -23.0433 H   0  0  0  0  0  0
  -13.2895   -7.6750  -24.2183 H   0  0  0  0  0  0
  -16.6432   -3.8188  -25.9205 H   0  0  0  0  0  0
  -18.7489   -3.9361  -27.0217 H   0  0  0  0  0  0
  1  2  1  0  0  0
  1 39  1  0  0  0
  1 40  1  0  0  0
  1 41  1  0  0  0
  2  3  1  0  0  0
  2  4  1  0  0  0
  2  5  1  0  0  0
  3 42  1  0  0  0
  3 43  1  0  0  0
  3 44  1  0  0  0
  4 45  1  0  0  0
  4 46  1  0  0  0
  4 47  1  0  0  0
  5  6  1  0  0  0
  5 48  1  0  0  0
  6  7  2  0  0  0
  6  8  1  0  0  0
  8  9  1  0  0  0
  8 14  1  0  0  0
  8 49  1  0  0  0
  9 13  2  0  0  0
  9 10  1  0  0  0
 10 11  2  0  0  0
 10 50  1  0  0  0
 11 12  1  0  0  0
 11 51  1  0  0  0
 12 13  1  0  0  0
 13 52  1  0  0  0
 14 15  1  0  0  0
 14 27  1  0  0  0
 15 16  2  0  0  0
 15 17  1  0  0  0
 17 18  1  0  0  0
 17 53  1  0  0  0
 17 54  1  0  0  0
 18 26  1  0  0  0
 18 19  1  0  0  0
 19 20  2  0  0  0
 20 21  1  0  0  0
 21 26  2  0  0  0
 21 22  1  0  0  0
 22 23  2  0  0  0
 22 55  1  0  0  0
 23 24  1  0  0  0
 23 56  1  0  0  0
 24 25  2  0  0  0
 24 57  1  0  0  0
 25 26  1  0  0  0
 25 58  1  0  0  0
 27 38  1  0  0  0
 27 28  2  0  0  0
 28 29  1  0  0  0
 28 59  1  0  0  0
 29 30  2  0  0  0
 29 60  1  0  0  0
 30 31  1  0  0  0
 30 37  1  0  0  0
 31 32  1  0  0  0
 31 61  1  0  0  0
 32 33  2  0  0  0
 32 34  1  0  0  0
 34 36  1  0  0  0
 34 35  1  0  0  0
 34 62  1  0  0  0
 35 36  1  0  0  0
 35 63  1  0  0  0
 35 64  1  0  0  0
 36 65  1  0  0  0
 36 66  1  0  0  0
 37 38  2  0  0  0
 37 67  1  0  0  0
 38 68  1  0  0  0
M  END
$$$$
