@<TRIPOS>MOLECULE
*****
 68 72 0 0 0
SMALL
GASTEIGER
****
Schrodinger Suite 2019-4.
@<TRIPOS>ATOM
      1 C         -22.6435   -4.6130  -31.0653 C.3     1  UNL1       -0.0442
      2 C         -23.2967   -4.0980  -29.7823 C.3     1  UNL1        0.0262
      3 C         -23.4714   -2.5787  -29.8738 C.3     1  UNL1       -0.0442
      4 C         -24.6717   -4.7688  -29.6198 C.3     1  UNL1       -0.0442
      5 N         -22.4318   -4.5120  -28.6777 N.am    1  UNL1       -0.3087
      6 C         -22.6864   -4.6913  -27.3666 C.2     1  UNL1        0.2388
      7 O         -23.7049   -4.3071  -26.7917 O.2     1  UNL1       -0.2734
      8 C         -21.6265   -5.4905  -26.5734 C.3     1  UNL1        0.1326
      9 C         -21.1803   -4.5051  -25.5512 C.ar    1  UNL1       -0.0109
     10 C         -20.2793   -3.4205  -25.7784 C.ar    1  UNL1       -0.0493
     11 C         -19.6380   -3.0464  -24.6394 C.ar    1  UNL1       -0.0240
     12 S         -20.3287   -3.8360  -23.2725 S.2     1  UNL1       -0.1047
     13 C         -21.4863   -4.6613  -24.2377 C.ar    1  UNL1       -0.0189
     14 N         -20.4158   -6.0359  -27.2649 N.am    1  UNL1       -0.2538
     15 C         -20.5058   -6.5730  -28.5077 C.2     1  UNL1        0.2423
     16 O         -21.5555   -7.0297  -28.9614 O.2     1  UNL1       -0.2732
     17 C         -19.2707   -6.6779  -29.3931 C.3     1  UNL1        0.1204
     18 N         -19.4675   -7.7017  -30.3816 N.ar    1  UNL1       -0.2351
     19 N         -19.5042   -9.0169  -30.0261 N.ar    1  UNL1       -0.0641
     20 N         -19.7841   -9.7145  -31.0861 N.ar    1  UNL1       -0.1295
     21 C         -19.9150   -8.8384  -32.1537 C.ar    1  UNL1        0.1127
     22 C         -20.2163   -9.0402  -33.5178 C.ar    1  UNL1       -0.0324
     23 C         -20.2737   -7.9397  -34.4021 C.ar    1  UNL1       -0.0596
     24 C         -20.0340   -6.6280  -33.9369 C.ar    1  UNL1       -0.0596
     25 C         -19.7564   -6.4060  -32.5780 C.ar    1  UNL1       -0.0345
     26 C         -19.6963   -7.5152  -31.7199 C.ar    1  UNL1        0.0895
     27 C         -19.1472   -6.0064  -26.5759 C.ar    1  UNL1        0.0376
     28 C         -18.6240   -7.1452  -25.9281 C.ar    1  UNL1       -0.0385
     29 C         -17.3648   -7.0933  -25.2837 C.ar    1  UNL1       -0.0387
     30 C         -16.6124   -5.8982  -25.2443 C.ar    1  UNL1        0.0335
     31 N         -15.3056   -5.9339  -24.6574 N.am    1  UNL1       -0.2853
     32 C         -14.2906   -5.0555  -24.8021 C.2     1  UNL1        0.2203
     33 O         -14.4528   -3.9191  -25.2379 O.2     1  UNL1       -0.2752
     34 C         -12.9424   -5.4335  -24.2356 C.3     1  UNL1        0.0359
     35 C         -11.8712   -6.1967  -25.0044 C.3     1  UNL1       -0.0412
     36 C         -12.6033   -6.8859  -23.9185 C.3     1  UNL1       -0.0412
     37 C         -17.1651   -4.7537  -25.8580 C.ar    1  UNL1       -0.0387
     38 C         -18.3916   -4.8186  -26.5272 C.ar    1  UNL1       -0.0385
     39 H         -22.6442   -5.6980  -31.0856 H       1  UNL1        0.0250
     40 H         -23.1709   -4.2669  -31.9550 H       1  UNL1        0.0250
     41 H         -21.6117   -4.2841  -31.1313 H       1  UNL1        0.0250
     42 H         -24.0655   -2.2164  -29.0401 H       1  UNL1        0.0250
     43 H         -22.5135   -2.0699  -29.8537 H       1  UNL1        0.0250
     44 H         -23.9912   -2.2891  -30.7864 H       1  UNL1        0.0250
     45 H         -25.1726   -4.4341  -28.7106 H       1  UNL1        0.0250
     46 H         -25.3281   -4.5327  -30.4583 H       1  UNL1        0.0250
     47 H         -24.5868   -5.8548  -29.5652 H       1  UNL1        0.0250
     48 H         -21.5193   -4.8217  -28.9748 H       1  UNL1        0.1493
     49 H         -22.1301   -6.3331  -26.1030 H       1  UNL1        0.0651
     50 H         -19.9960   -3.1024  -26.7678 H       1  UNL1        0.0626
     51 H         -18.8049   -2.3732  -24.5263 H       1  UNL1        0.0693
     52 H         -22.1925   -5.3493  -23.8025 H       1  UNL1        0.0697
     53 H         -18.3565   -6.8617  -28.8632 H       1  UNL1        0.0606
     54 H         -19.1323   -5.7211  -29.8981 H       1  UNL1        0.0606
     55 H         -20.3927  -10.0394  -33.8869 H       1  UNL1        0.0640
     56 H         -20.4914   -8.1039  -35.4477 H       1  UNL1        0.0618
     57 H         -20.0579   -5.7967  -34.6247 H       1  UNL1        0.0618
     58 H         -19.5819   -5.4069  -32.2066 H       1  UNL1        0.0639
     59 H         -19.1693   -8.0742  -25.9570 H       1  UNL1        0.0637
     60 H         -16.9694   -7.9909  -24.8307 H       1  UNL1        0.0637
     61 H         -15.0670   -6.7949  -24.1871 H       1  UNL1        0.1548
     62 H         -12.4688   -4.6235  -23.7072 H       1  UNL1        0.0394
     63 H         -10.8376   -5.9307  -24.7985 H       1  UNL1        0.0273
     64 H         -12.0258   -6.5725  -26.0051 H       1  UNL1        0.0273
     65 H         -12.0030   -7.1153  -23.0433 H       1  UNL1        0.0273
     66 H         -13.2895   -7.6750  -24.2183 H       1  UNL1        0.0273
     67 H         -16.6432   -3.8188  -25.9205 H       1  UNL1        0.0637
     68 H         -18.7489   -3.9361  -27.0217 H       1  UNL1        0.0637
@<TRIPOS>BOND
     1     1     2    1
     2     1    39    1
     3     1    40    1
     4     1    41    1
     5     2     3    1
     6     2     4    1
     7     2     5    1
     8     3    42    1
     9     3    43    1
    10     3    44    1
    11     4    45    1
    12     4    46    1
    13     4    47    1
    14     5     6   am
    15     5    48    1
    16     6     7    2
    17     6     8    1
    18     8     9    1
    19     8    14    1
    20     8    49    1
    21     9    13   ar
    22     9    10   ar
    23    10    11   ar
    24    10    50    1
    25    11    12   ar
    26    11    51    1
    27    12    13   ar
    28    13    52    1
    29    14    15   am
    30    14    27    1
    31    15    16    2
    32    15    17    1
    33    17    18    1
    34    17    53    1
    35    17    54    1
    36    18    26   ar
    37    18    19   ar
    38    19    20   ar
    39    20    21   ar
    40    21    26   ar
    41    21    22   ar
    42    22    23   ar
    43    22    55    1
    44    23    24   ar
    45    23    56    1
    46    24    25   ar
    47    24    57    1
    48    25    26   ar
    49    25    58    1
    50    27    38   ar
    51    27    28   ar
    52    28    29   ar
    53    28    59    1
    54    29    30   ar
    55    29    60    1
    56    30    31    1
    57    30    37   ar
    58    31    32   am
    59    31    61    1
    60    32    33    2
    61    32    34    1
    62    34    36    1
    63    34    35    1
    64    34    62    1
    65    35    36    1
    66    35    63    1
    67    35    64    1
    68    36    65    1
    69    36    66    1
    70    37    38   ar
    71    37    67    1
    72    38    68    1
