@<TRIPOS>MOLECULE
*****
 67 70 0 0 0
SMALL
GASTEIGER
****
Schrodinger Suite 2019-4.
@<TRIPOS>ATOM
      1 C         -28.7957   -5.6124  -24.7594 C.3     1  UNL1       -0.0570
      2 C         -28.9897   -4.5523  -25.8630 C.3     1  UNL1        0.0215
      3 C         -27.9066   -4.6384  -26.9395 C.2     1  UNL1        0.2169
      4 O         -28.2165   -5.0262  -28.0666 O.2     1  UNL1       -0.2755
      5 N         -26.6515   -4.2981  -26.5721 N.am    1  UNL1       -0.2855
      6 C         -25.4868   -4.5924  -27.2962 C.ar    1  UNL1        0.0335
      7 C         -25.2750   -5.8883  -27.7495 C.ar    1  UNL1       -0.0387
      8 C         -24.1265   -6.2267  -28.4379 C.ar    1  UNL1       -0.0385
      9 C         -23.1479   -5.2603  -28.6481 C.ar    1  UNL1        0.0376
     10 N         -22.0263   -5.6273  -29.4211 N.am    1  UNL1       -0.2538
     11 C         -21.0322   -6.3232  -28.7721 C.2     1  UNL1        0.2423
     12 O         -20.1181   -6.9016  -29.3632 O.2     1  UNL1       -0.2732
     13 C         -21.0671   -6.4295  -27.2225 C.3     1  UNL1        0.1204
     14 N         -19.8489   -6.9231  -26.5982 N.ar    1  UNL1       -0.2351
     15 N         -19.5762   -8.2437  -26.5764 N.ar    1  UNL1       -0.0641
     16 N         -18.3357   -8.4213  -26.0071 N.ar    1  UNL1       -0.1295
     17 C         -17.8478   -7.1849  -25.7037 C.ar    1  UNL1        0.1127
     18 C         -16.6278   -6.8039  -25.1336 C.ar    1  UNL1       -0.0324
     19 C         -16.3837   -5.4406  -24.9719 C.ar    1  UNL1       -0.0596
     20 C         -17.3330   -4.4836  -25.3274 C.ar    1  UNL1       -0.0596
     21 C         -18.5611   -4.8321  -25.8915 C.ar    1  UNL1       -0.0345
     22 C         -18.7940   -6.1995  -26.0755 C.ar    1  UNL1        0.0895
     23 C         -22.2253   -5.6107  -30.9159 C.3     1  UNL1        0.1326
     24 C         -21.0008   -5.7236  -31.8584 C.2     1  UNL1        0.2388
     25 O         -20.0063   -5.0413  -31.6346 O.2     1  UNL1       -0.2734
     26 N         -21.1204   -6.5736  -32.8974 N.am    1  UNL1       -0.3087
     27 C         -20.0823   -6.9475  -33.8692 C.3     1  UNL1        0.0262
     28 C         -20.7123   -7.8822  -34.9222 C.3     1  UNL1       -0.0442
     29 C         -18.9569   -7.7167  -33.1413 C.3     1  UNL1       -0.0442
     30 C         -19.5078   -5.7151  -34.6113 C.3     1  UNL1       -0.0442
     31 C         -23.0703   -4.4476  -31.3555 C.ar    1  UNL1       -0.0109
     32 C         -22.6378   -3.1195  -31.5225 C.ar    1  UNL1       -0.0493
     33 C         -23.6873   -2.2414  -31.7545 C.ar    1  UNL1       -0.0240
     34 S         -25.2258   -3.0395  -31.7720 S.2     1  UNL1       -0.1047
     35 C         -24.4488   -4.5616  -31.5024 C.ar    1  UNL1       -0.0189
     36 C         -23.3200   -3.9555  -28.1634 C.ar    1  UNL1       -0.0385
     37 C         -24.4930   -3.6292  -27.4755 C.ar    1  UNL1       -0.0387
     38 H         -28.7974   -6.6307  -25.1541 H       1  UNL1        0.0234
     39 H         -27.8743   -5.4511  -24.1988 H       1  UNL1        0.0234
     40 H         -29.6067   -5.5614  -24.0344 H       1  UNL1        0.0234
     41 H         -28.9976   -3.5502  -25.4431 H       1  UNL1        0.0356
     42 H         -29.9680   -4.6847  -26.3280 H       1  UNL1        0.0356
     43 H         -26.4956   -3.8427  -25.6742 H       1  UNL1        0.1548
     44 H         -26.0066   -6.6485  -27.5602 H       1  UNL1        0.0637
     45 H         -24.0059   -7.2372  -28.8028 H       1  UNL1        0.0637
     46 H         -21.8704   -7.1157  -26.9527 H       1  UNL1        0.0606
     47 H         -21.3079   -5.4703  -26.7619 H       1  UNL1        0.0606
     48 H         -15.8748   -7.5355  -24.8758 H       1  UNL1        0.0640
     49 H         -15.4335   -5.1225  -24.5687 H       1  UNL1        0.0618
     50 H         -17.1045   -3.4412  -25.1695 H       1  UNL1        0.0618
     51 H         -19.2838   -4.0787  -26.1708 H       1  UNL1        0.0639
     52 H         -22.8100   -6.5150  -31.0981 H       1  UNL1        0.0651
     53 H         -21.9890   -7.0798  -32.9755 H       1  UNL1        0.1493
     54 H         -20.0141   -8.1015  -35.7312 H       1  UNL1        0.0250
     55 H         -20.9947   -8.8422  -34.4879 H       1  UNL1        0.0250
     56 H         -21.6023   -7.4419  -35.3773 H       1  UNL1        0.0250
     57 H         -18.2469   -8.1731  -33.8276 H       1  UNL1        0.0250
     58 H         -18.3989   -7.0552  -32.4814 H       1  UNL1        0.0250
     59 H         -19.3588   -8.5206  -32.5225 H       1  UNL1        0.0250
     60 H         -18.8286   -6.0107  -35.4122 H       1  UNL1        0.0250
     61 H         -20.3000   -5.1146  -35.0609 H       1  UNL1        0.0250
     62 H         -18.9400   -5.0619  -33.9486 H       1  UNL1        0.0250
     63 H         -21.6073   -2.8086  -31.4328 H       1  UNL1        0.0626
     64 H         -23.6341   -1.1711  -31.8785 H       1  UNL1        0.0693
     65 H         -25.0429   -5.4542  -31.3728 H       1  UNL1        0.0697
     66 H         -22.5648   -3.2007  -28.3321 H       1  UNL1        0.0637
     67 H         -24.6369   -2.6350  -27.0876 H       1  UNL1        0.0637
@<TRIPOS>BOND
     1     1     2    1
     2     1    38    1
     3     1    39    1
     4     1    40    1
     5     2     3    1
     6     2    41    1
     7     2    42    1
     8     3     4    2
     9     3     5   am
    10     5     6    1
    11     5    43    1
    12     6    37   ar
    13     6     7   ar
    14     7     8   ar
    15     7    44    1
    16     8     9   ar
    17     8    45    1
    18     9    10    1
    19     9    36   ar
    20    10    11   am
    21    10    23    1
    22    11    12    2
    23    11    13    1
    24    13    14    1
    25    13    46    1
    26    13    47    1
    27    14    22   ar
    28    14    15   ar
    29    15    16   ar
    30    16    17   ar
    31    17    22   ar
    32    17    18   ar
    33    18    19   ar
    34    18    48    1
    35    19    20   ar
    36    19    49    1
    37    20    21   ar
    38    20    50    1
    39    21    22   ar
    40    21    51    1
    41    23    24    1
    42    23    31    1
    43    23    52    1
    44    24    25    2
    45    24    26   am
    46    26    27    1
    47    26    53    1
    48    27    28    1
    49    27    29    1
    50    27    30    1
    51    28    54    1
    52    28    55    1
    53    28    56    1
    54    29    57    1
    55    29    58    1
    56    29    59    1
    57    30    60    1
    58    30    61    1
    59    30    62    1
    60    31    35   ar
    61    31    32   ar
    62    32    33   ar
    63    32    63    1
    64    33    34   ar
    65    33    64    1
    66    34    35   ar
    67    35    65    1
    68    36    37   ar
    69    36    66    1
    70    37    67    1
