
                    3D
 Schrodinger Suite 2019-4.
 67 70  0  0  1  0            999 V2000
  -28.7957   -5.6124  -24.7594 C   0  0  0  0  0  0
  -28.9897   -4.5523  -25.8630 C   0  0  0  0  0  0
  -27.9066   -4.6384  -26.9395 C   0  0  0  0  0  0
  -28.2165   -5.0262  -28.0666 O   0  0  0  0  0  0
  -26.6515   -4.2981  -26.5721 N   0  0  0  0  0  0
  -25.4868   -4.5924  -27.2962 C   0  0  0  0  0  0
  -25.2750   -5.8883  -27.7495 C   0  0  0  0  0  0
  -24.1265   -6.2267  -28.4379 C   0  0  0  0  0  0
  -23.1479   -5.2603  -28.6481 C   0  0  0  0  0  0
  -22.0263   -5.6273  -29.4211 N   0  0  0  0  0  0
  -21.0322   -6.3232  -28.7721 C   0  0  0  0  0  0
  -20.1181   -6.9016  -29.3632 O   0  0  0  0  0  0
  -21.0671   -6.4295  -27.2225 C   0  0  0  0  0  0
  -19.8489   -6.9231  -26.5982 N   0  0  0  0  0  0
  -19.5762   -8.2437  -26.5764 N   0  0  0  0  0  0
  -18.3357   -8.4213  -26.0071 N   0  0  0  0  0  0
  -17.8478   -7.1849  -25.7037 C   0  0  0  0  0  0
  -16.6278   -6.8039  -25.1336 C   0  0  0  0  0  0
  -16.3837   -5.4406  -24.9719 C   0  0  0  0  0  0
  -17.3330   -4.4836  -25.3274 C   0  0  0  0  0  0
  -18.5611   -4.8321  -25.8915 C   0  0  0  0  0  0
  -18.7940   -6.1995  -26.0755 C   0  0  0  0  0  0
  -22.2253   -5.6107  -30.9159 C   0  0  2  0  0  0
  -21.0008   -5.7236  -31.8584 C   0  0  0  0  0  0
  -20.0063   -5.0413  -31.6346 O   0  0  0  0  0  0
  -21.1204   -6.5736  -32.8974 N   0  0  0  0  0  0
  -20.0823   -6.9475  -33.8692 C   0  0  0  0  0  0
  -20.7123   -7.8822  -34.9222 C   0  0  0  0  0  0
  -18.9569   -7.7167  -33.1413 C   0  0  0  0  0  0
  -19.5078   -5.7151  -34.6113 C   0  0  0  0  0  0
  -23.0703   -4.4476  -31.3555 C   0  0  0  0  0  0
  -22.6378   -3.1195  -31.5225 C   0  0  0  0  0  0
  -23.6873   -2.2414  -31.7545 C   0  0  0  0  0  0
  -25.2258   -3.0395  -31.7720 S   0  0  0  0  0  0
  -24.4488   -4.5616  -31.5024 C   0  0  0  0  0  0
  -23.3200   -3.9555  -28.1634 C   0  0  0  0  0  0
  -24.4930   -3.6292  -27.4755 C   0  0  0  0  0  0
  -28.7974   -6.6307  -25.1541 H   0  0  0  0  0  0
  -27.8743   -5.4511  -24.1988 H   0  0  0  0  0  0
  -29.6067   -5.5614  -24.0344 H   0  0  0  0  0  0
  -28.9976   -3.5502  -25.4431 H   0  0  0  0  0  0
  -29.9680   -4.6847  -26.3280 H   0  0  0  0  0  0
  -26.4956   -3.8427  -25.6742 H   0  0  0  0  0  0
  -26.0066   -6.6485  -27.5602 H   0  0  0  0  0  0
  -24.0059   -7.2372  -28.8028 H   0  0  0  0  0  0
  -21.8704   -7.1157  -26.9527 H   0  0  0  0  0  0
  -21.3079   -5.4703  -26.7619 H   0  0  0  0  0  0
  -15.8748   -7.5355  -24.8758 H   0  0  0  0  0  0
  -15.4335   -5.1225  -24.5687 H   0  0  0  0  0  0
  -17.1045   -3.4412  -25.1695 H   0  0  0  0  0  0
  -19.2838   -4.0787  -26.1708 H   0  0  0  0  0  0
  -22.8100   -6.5150  -31.0981 H   0  0  0  0  0  0
  -21.9890   -7.0798  -32.9755 H   0  0  0  0  0  0
  -20.0141   -8.1015  -35.7312 H   0  0  0  0  0  0
  -20.9947   -8.8422  -34.4879 H   0  0  0  0  0  0
  -21.6023   -7.4419  -35.3773 H   0  0  0  0  0  0
  -18.2469   -8.1731  -33.8276 H   0  0  0  0  0  0
  -18.3989   -7.0552  -32.4814 H   0  0  0  0  0  0
  -19.3588   -8.5206  -32.5225 H   0  0  0  0  0  0
  -18.8286   -6.0107  -35.4122 H   0  0  0  0  0  0
  -20.3000   -5.1146  -35.0609 H   0  0  0  0  0  0
  -18.9400   -5.0619  -33.9486 H   0  0  0  0  0  0
  -21.6073   -2.8086  -31.4328 H   0  0  0  0  0  0
  -23.6341   -1.1711  -31.8785 H   0  0  0  0  0  0
  -25.0429   -5.4542  -31.3728 H   0  0  0  0  0  0
  -22.5648   -3.2007  -28.3321 H   0  0  0  0  0  0
  -24.6369   -2.6350  -27.0876 H   0  0  0  0  0  0
  1  2  1  0  0  0
  1 38  1  0  0  0
  1 39  1  0  0  0
  1 40  1  0  0  0
  2  3  1  0  0  0
  2 41  1  0  0  0
  2 42  1  0  0  0
  3  4  2  0  0  0
  3  5  1  0  0  0
  5  6  1  0  0  0
  5 43  1  0  0  0
  6 37  1  0  0  0
  6  7  2  0  0  0
  7  8  1  0  0  0
  7 44  1  0  0  0
  8  9  2  0  0  0
  8 45  1  0  0  0
  9 10  1  0  0  0
  9 36  1  0  0  0
 10 11  1  0  0  0
 10 23  1  0  0  0
 11 12  2  0  0  0
 11 13  1  0  0  0
 13 14  1  0  0  0
 13 46  1  0  0  0
 13 47  1  0  0  0
 14 22  1  0  0  0
 14 15  1  0  0  0
 15 16  2  0  0  0
 16 17  1  0  0  0
 17 22  2  0  0  0
 17 18  1  0  0  0
 18 19  2  0  0  0
 18 48  1  0  0  0
 19 20  1  0  0  0
 19 49  1  0  0  0
 20 21  2  0  0  0
 20 50  1  0  0  0
 21 22  1  0  0  0
 21 51  1  0  0  0
 23 24  1  0  0  0
 23 31  1  0  0  0
 23 52  1  0  0  0
 24 25  2  0  0  0
 24 26  1  0  0  0
 26 27  1  0  0  0
 26 53  1  0  0  0
 27 28  1  0  0  0
 27 29  1  0  0  0
 27 30  1  0  0  0
 28 54  1  0  0  0
 28 55  1  0  0  0
 28 56  1  0  0  0
 29 57  1  0  0  0
 29 58  1  0  0  0
 29 59  1  0  0  0
 30 60  1  0  0  0
 30 61  1  0  0  0
 30 62  1  0  0  0
 31 35  2  0  0  0
 31 32  1  0  0  0
 32 33  2  0  0  0
 32 63  1  0  0  0
 33 34  1  0  0  0
 33 64  1  0  0  0
 34 35  1  0  0  0
 35 65  1  0  0  0
 36 37  2  0  0  0
 36 66  1  0  0  0
 37 67  1  0  0  0
M  END
$$$$
