@<TRIPOS>MOLECULE
*****
 82 85 0 0 0
SMALL
GASTEIGER
****
Schrodinger Suite 2019-4.
@<TRIPOS>ATOM
      1 O         -18.9220   -5.9112  -29.6369 O.2     1  UNL1       -0.2708
      2 C         -19.8362   -6.1666  -30.4257 C.2     1  UNL1        0.2375
      3 N         -21.0605   -5.6137  -30.3551 N.am    1  UNL1       -0.3005
      4 C         -21.5480   -4.6806  -29.3319 C.3     1  UNL1        0.0999
      5 C         -23.0482   -4.3300  -29.5424 C.3     1  UNL1       -0.0231
      6 C         -23.3597   -3.2384  -30.5897 C.3     1  UNL1       -0.0389
      7 C         -22.8325   -1.8425  -30.1603 C.3     1  UNL1       -0.0501
      8 C         -23.2346   -0.7189  -31.1323 C.3     1  UNL1       -0.0528
      9 C         -24.7544   -0.7146  -31.3736 C.3     1  UNL1       -0.0530
     10 C         -25.2582   -2.0790  -31.8680 C.3     1  UNL1       -0.0528
     11 C         -24.8830   -3.1838  -30.8682 C.3     1  UNL1       -0.0501
     12 C         -21.3715   -5.2115  -27.8940 C.2     1  UNL1        0.2339
     13 O         -21.8281   -6.3127  -27.5826 O.2     1  UNL1       -0.2738
     14 N         -20.8161   -4.3550  -27.0247 N.am    1  UNL1       -0.3036
     15 C         -20.7699   -4.5380  -25.5682 C.3     1  UNL1        0.0914
     16 C         -19.3074   -4.4094  -25.0524 C.3     1  UNL1       -0.0159
     17 C         -18.3960   -5.5629  -25.5817 C.3     1  UNL1        0.0390
     18 C         -18.7297   -6.9443  -25.0318 C.3     1  UNL1       -0.0262
     19 C         -17.3904   -7.6501  -24.9294 C.3     1  UNL1        0.0123
     20 N         -16.4446   -6.5480  -24.8382 N.am    1  UNL1       -0.3151
     21 C         -16.9145   -5.3541  -25.2362 C.2     1  UNL1        0.2162
     22 O         -16.2794   -4.3130  -25.3487 O.2     1  UNL1       -0.2755
     23 C         -21.7895   -3.5333  -24.9996 C.2     1  UNL1        0.2372
     24 O         -22.4350   -2.7131  -25.6649 O.2     1  UNL1       -0.2852
     25 C         -22.1623   -3.7161  -23.4826 C.2     1  UNL1        0.2817
     26 O         -21.3088   -3.9111  -22.6192 O.2     1  UNL1       -0.2670
     27 N         -23.4928   -3.6444  -23.2891 N.am    1  UNL1       -0.3048
     28 C         -24.1764   -3.9906  -22.0476 C.3     1  UNL1        0.0372
     29 C         -24.2835   -5.4899  -21.7559 C.ar    1  UNL1       -0.0303
     30 C         -24.4416   -5.9096  -20.4335 C.ar    1  UNL1       -0.0571
     31 C         -24.5234   -7.2665  -20.1316 C.ar    1  UNL1       -0.0615
     32 C         -24.4440   -8.2078  -21.1559 C.ar    1  UNL1       -0.0617
     33 C         -24.2789   -7.8027  -22.4781 C.ar    1  UNL1       -0.0615
     34 C         -24.1984   -6.4462  -22.7783 C.ar    1  UNL1       -0.0571
     35 C         -19.7107   -7.0949  -31.5236 C.2     1  UNL1        0.0007
     36 C         -18.5938   -7.8244  -31.7357 C.2     1  UNL1       -0.0497
     37 C         -18.3828   -8.8059  -32.8209 C.ar    1  UNL1       -0.0249
     38 C         -19.4291   -9.2575  -33.6386 C.ar    1  UNL1       -0.0546
     39 C         -19.1841  -10.1853  -34.6481 C.ar    1  UNL1       -0.0612
     40 C         -17.8944  -10.6717  -34.8411 C.ar    1  UNL1       -0.0617
     41 C         -16.8474  -10.2320  -34.0364 C.ar    1  UNL1       -0.0612
     42 C         -17.0902   -9.2976  -33.0329 C.ar    1  UNL1       -0.0546
     43 H         -21.7454   -5.8913  -31.0379 H       1  UNL1        0.1498
     44 H         -20.9504   -3.7735  -29.4240 H       1  UNL1        0.0595
     45 H         -23.5021   -3.9943  -28.6045 H       1  UNL1        0.0290
     46 H         -23.5850   -5.2457  -29.8020 H       1  UNL1        0.0290
     47 H         -22.8751   -3.4845  -31.5363 H       1  UNL1        0.0301
     48 H         -21.7516   -1.8540  -30.0379 H       1  UNL1        0.0268
     49 H         -23.2285   -1.5983  -29.1726 H       1  UNL1        0.0268
     50 H         -22.7025   -0.8567  -32.0718 H       1  UNL1        0.0265
     51 H         -22.9176    0.2456  -30.7324 H       1  UNL1        0.0265
     52 H         -25.0589    0.0757  -32.0509 H       1  UNL1        0.0265
     53 H         -25.2439   -0.4796  -30.4365 H       1  UNL1        0.0265
     54 H         -24.8159   -2.3053  -32.8366 H       1  UNL1        0.0265
     55 H         -26.3383   -2.0499  -32.0182 H       1  UNL1        0.0265
     56 H         -25.4165   -3.0085  -29.9321 H       1  UNL1        0.0268
     57 H         -25.2428   -4.1526  -31.2141 H       1  UNL1        0.0268
     58 H         -20.4631   -3.4693  -27.3644 H       1  UNL1        0.1495
     59 H         -21.1294   -5.5361  -25.2987 H       1  UNL1        0.0583
     60 H         -19.2700   -4.4142  -23.9635 H       1  UNL1        0.0295
     61 H         -18.9014   -3.4429  -25.3602 H       1  UNL1        0.0295
     62 H         -18.4333   -5.5797  -26.6720 H       1  UNL1        0.0395
     63 H         -19.4459   -7.4974  -25.6406 H       1  UNL1        0.0288
     64 H         -19.1657   -6.8529  -24.0373 H       1  UNL1        0.0288
     65 H         -17.1718   -8.2532  -25.8132 H       1  UNL1        0.0462
     66 H         -17.3357   -8.2960  -24.0507 H       1  UNL1        0.0462
     67 H         -15.4548   -6.7077  -24.6783 H       1  UNL1        0.1487
     68 H         -24.0908   -3.5130  -24.1010 H       1  UNL1        0.1494
     69 H         -25.1882   -3.5813  -22.0780 H       1  UNL1        0.0512
     70 H         -23.6677   -3.4821  -21.2290 H       1  UNL1        0.0512
     71 H         -24.4955   -5.1830  -19.6377 H       1  UNL1        0.0621
     72 H         -24.6465   -7.5900  -19.1089 H       1  UNL1        0.0618
     73 H         -24.5101   -9.2604  -20.9214 H       1  UNL1        0.0618
     74 H         -24.2147   -8.5377  -23.2675 H       1  UNL1        0.0618
     75 H         -24.0768   -6.1452  -23.8092 H       1  UNL1        0.0621
     76 H         -20.5664   -7.1844  -32.1755 H       1  UNL1        0.0669
     77 H         -17.7591   -7.7060  -31.0556 H       1  UNL1        0.0625
     78 H         -20.4404   -8.9088  -33.4979 H       1  UNL1        0.0623
     79 H         -19.9922  -10.5304  -35.2762 H       1  UNL1        0.0618
     80 H         -17.7046  -11.3936  -35.6220 H       1  UNL1        0.0618
     81 H         -15.8498  -10.6154  -34.1900 H       1  UNL1        0.0618
     82 H         -16.2674   -8.9602  -32.4160 H       1  UNL1        0.0623
@<TRIPOS>BOND
     1     1     2    2
     2     2     3   am
     3     2    35    1
     4     3     4    1
     5     3    43    1
     6     4     5    1
     7     4    12    1
     8     4    44    1
     9     5     6    1
    10     5    45    1
    11     5    46    1
    12     6    11    1
    13     6     7    1
    14     6    47    1
    15     7     8    1
    16     7    48    1
    17     7    49    1
    18     8     9    1
    19     8    50    1
    20     8    51    1
    21     9    10    1
    22     9    52    1
    23     9    53    1
    24    10    11    1
    25    10    54    1
    26    10    55    1
    27    11    56    1
    28    11    57    1
    29    12    13    2
    30    12    14   am
    31    14    15    1
    32    14    58    1
    33    15    16    1
    34    15    23    1
    35    15    59    1
    36    16    17    1
    37    16    60    1
    38    16    61    1
    39    17    21    1
    40    17    18    1
    41    17    62    1
    42    18    19    1
    43    18    63    1
    44    18    64    1
    45    19    20    1
    46    19    65    1
    47    19    66    1
    48    20    21   am
    49    20    67    1
    50    21    22    2
    51    23    24    2
    52    23    25    1
    53    25    26    2
    54    25    27   am
    55    27    28    1
    56    27    68    1
    57    28    29    1
    58    28    69    1
    59    28    70    1
    60    29    34   ar
    61    29    30   ar
    62    30    31   ar
    63    30    71    1
    64    31    32   ar
    65    31    72    1
    66    32    33   ar
    67    32    73    1
    68    33    34   ar
    69    33    74    1
    70    34    75    1
    71    35    36    2
    72    35    76    1
    73    36    37    1
    74    36    77    1
    75    37    42   ar
    76    37    38   ar
    77    38    39   ar
    78    38    78    1
    79    39    40   ar
    80    39    79    1
    81    40    41   ar
    82    40    80    1
    83    41    42   ar
    84    41    81    1
    85    42    82    1
