
                    3D
 Schrodinger Suite 2019-4.
 82 85  0  0  1  0            999 V2000
  -18.9220   -5.9112  -29.6369 O   0  0  0  0  0  0
  -19.8362   -6.1666  -30.4257 C   0  0  0  0  0  0
  -21.0605   -5.6137  -30.3551 N   0  0  0  0  0  0
  -21.5480   -4.6806  -29.3319 C   0  0  1  0  0  0
  -23.0482   -4.3300  -29.5424 C   0  0  0  0  0  0
  -23.3597   -3.2384  -30.5897 C   0  0  0  0  0  0
  -22.8325   -1.8425  -30.1603 C   0  0  0  0  0  0
  -23.2346   -0.7189  -31.1323 C   0  0  0  0  0  0
  -24.7544   -0.7146  -31.3736 C   0  0  0  0  0  0
  -25.2582   -2.0790  -31.8680 C   0  0  0  0  0  0
  -24.8830   -3.1838  -30.8682 C   0  0  0  0  0  0
  -21.3715   -5.2115  -27.8940 C   0  0  0  0  0  0
  -21.8281   -6.3127  -27.5826 O   0  0  0  0  0  0
  -20.8161   -4.3550  -27.0247 N   0  0  0  0  0  0
  -20.7699   -4.5380  -25.5682 C   0  0  1  0  0  0
  -19.3074   -4.4094  -25.0524 C   0  0  0  0  0  0
  -18.3960   -5.5629  -25.5817 C   0  0  2  0  0  0
  -18.7297   -6.9443  -25.0318 C   0  0  0  0  0  0
  -17.3904   -7.6501  -24.9294 C   0  0  0  0  0  0
  -16.4446   -6.5480  -24.8382 N   0  0  0  0  0  0
  -16.9145   -5.3541  -25.2362 C   0  0  0  0  0  0
  -16.2794   -4.3130  -25.3487 O   0  0  0  0  0  0
  -21.7895   -3.5333  -24.9996 C   0  0  0  0  0  0
  -22.4350   -2.7131  -25.6649 O   0  0  0  0  0  0
  -22.1623   -3.7161  -23.4826 C   0  0  0  0  0  0
  -21.3088   -3.9111  -22.6192 O   0  0  0  0  0  0
  -23.4928   -3.6444  -23.2891 N   0  0  0  0  0  0
  -24.1764   -3.9906  -22.0476 C   0  0  0  0  0  0
  -24.2835   -5.4899  -21.7559 C   0  0  0  0  0  0
  -24.4416   -5.9096  -20.4335 C   0  0  0  0  0  0
  -24.5234   -7.2665  -20.1316 C   0  0  0  0  0  0
  -24.4440   -8.2078  -21.1559 C   0  0  0  0  0  0
  -24.2789   -7.8027  -22.4781 C   0  0  0  0  0  0
  -24.1984   -6.4462  -22.7783 C   0  0  0  0  0  0
  -19.7107   -7.0949  -31.5236 C   0  0  0  0  0  0
  -18.5938   -7.8244  -31.7357 C   0  0  0  0  0  0
  -18.3828   -8.8059  -32.8209 C   0  0  0  0  0  0
  -19.4291   -9.2575  -33.6386 C   0  0  0  0  0  0
  -19.1841  -10.1853  -34.6481 C   0  0  0  0  0  0
  -17.8944  -10.6717  -34.8411 C   0  0  0  0  0  0
  -16.8474  -10.2320  -34.0364 C   0  0  0  0  0  0
  -17.0902   -9.2976  -33.0329 C   0  0  0  0  0  0
  -21.7454   -5.8913  -31.0379 H   0  0  0  0  0  0
  -20.9504   -3.7735  -29.4240 H   0  0  0  0  0  0
  -23.5021   -3.9943  -28.6045 H   0  0  0  0  0  0
  -23.5850   -5.2457  -29.8020 H   0  0  0  0  0  0
  -22.8751   -3.4845  -31.5363 H   0  0  0  0  0  0
  -21.7516   -1.8540  -30.0379 H   0  0  0  0  0  0
  -23.2285   -1.5983  -29.1726 H   0  0  0  0  0  0
  -22.7025   -0.8567  -32.0718 H   0  0  0  0  0  0
  -22.9176    0.2456  -30.7324 H   0  0  0  0  0  0
  -25.0589    0.0757  -32.0509 H   0  0  0  0  0  0
  -25.2439   -0.4796  -30.4365 H   0  0  0  0  0  0
  -24.8159   -2.3053  -32.8366 H   0  0  0  0  0  0
  -26.3383   -2.0499  -32.0182 H   0  0  0  0  0  0
  -25.4165   -3.0085  -29.9321 H   0  0  0  0  0  0
  -25.2428   -4.1526  -31.2141 H   0  0  0  0  0  0
  -20.4631   -3.4693  -27.3644 H   0  0  0  0  0  0
  -21.1294   -5.5361  -25.2987 H   0  0  0  0  0  0
  -19.2700   -4.4142  -23.9635 H   0  0  0  0  0  0
  -18.9014   -3.4429  -25.3602 H   0  0  0  0  0  0
  -18.4333   -5.5797  -26.6720 H   0  0  0  0  0  0
  -19.4459   -7.4974  -25.6406 H   0  0  0  0  0  0
  -19.1657   -6.8529  -24.0373 H   0  0  0  0  0  0
  -17.1718   -8.2532  -25.8132 H   0  0  0  0  0  0
  -17.3357   -8.2960  -24.0507 H   0  0  0  0  0  0
  -15.4548   -6.7077  -24.6783 H   0  0  0  0  0  0
  -24.0908   -3.5130  -24.1010 H   0  0  0  0  0  0
  -25.1882   -3.5813  -22.0780 H   0  0  0  0  0  0
  -23.6677   -3.4821  -21.2290 H   0  0  0  0  0  0
  -24.4955   -5.1830  -19.6377 H   0  0  0  0  0  0
  -24.6465   -7.5900  -19.1089 H   0  0  0  0  0  0
  -24.5101   -9.2604  -20.9214 H   0  0  0  0  0  0
  -24.2147   -8.5377  -23.2675 H   0  0  0  0  0  0
  -24.0768   -6.1452  -23.8092 H   0  0  0  0  0  0
  -20.5664   -7.1844  -32.1755 H   0  0  0  0  0  0
  -17.7591   -7.7060  -31.0556 H   0  0  0  0  0  0
  -20.4404   -8.9088  -33.4979 H   0  0  0  0  0  0
  -19.9922  -10.5304  -35.2762 H   0  0  0  0  0  0
  -17.7046  -11.3936  -35.6220 H   0  0  0  0  0  0
  -15.8498  -10.6154  -34.1900 H   0  0  0  0  0  0
  -16.2674   -8.9602  -32.4160 H   0  0  0  0  0  0
  1  2  2  0  0  0
  2  3  1  0  0  0
  2 35  1  0  0  0
  3  4  1  0  0  0
  3 43  1  0  0  0
  4  5  1  0  0  0
  4 12  1  0  0  0
  4 44  1  0  0  0
  5  6  1  0  0  0
  5 45  1  0  0  0
  5 46  1  0  0  0
  6 11  1  0  0  0
  6  7  1  0  0  0
  6 47  1  0  0  0
  7  8  1  0  0  0
  7 48  1  0  0  0
  7 49  1  0  0  0
  8  9  1  0  0  0
  8 50  1  0  0  0
  8 51  1  0  0  0
  9 10  1  0  0  0
  9 52  1  0  0  0
  9 53  1  0  0  0
 10 11  1  0  0  0
 10 54  1  0  0  0
 10 55  1  0  0  0
 11 56  1  0  0  0
 11 57  1  0  0  0
 12 13  2  0  0  0
 12 14  1  0  0  0
 14 15  1  0  0  0
 14 58  1  0  0  0
 15 16  1  0  0  0
 15 23  1  0  0  0
 15 59  1  0  0  0
 16 17  1  0  0  0
 16 60  1  0  0  0
 16 61  1  0  0  0
 17 21  1  0  0  0
 17 18  1  0  0  0
 17 62  1  0  0  0
 18 19  1  0  0  0
 18 63  1  0  0  0
 18 64  1  0  0  0
 19 20  1  0  0  0
 19 65  1  0  0  0
 19 66  1  0  0  0
 20 21  1  0  0  0
 20 67  1  0  0  0
 21 22  2  0  0  0
 23 24  2  0  0  0
 23 25  1  0  0  0
 25 26  2  0  0  0
 25 27  1  0  0  0
 27 28  1  0  0  0
 27 68  1  0  0  0
 28 29  1  0  0  0
 28 69  1  0  0  0
 28 70  1  0  0  0
 29 34  1  0  0  0
 29 30  2  0  0  0
 30 31  1  0  0  0
 30 71  1  0  0  0
 31 32  2  0  0  0
 31 72  1  0  0  0
 32 33  1  0  0  0
 32 73  1  0  0  0
 33 34  2  0  0  0
 33 74  1  0  0  0
 34 75  1  0  0  0
 35 36  2  0  0  0
 35 76  1  0  0  0
 36 37  1  0  0  0
 36 77  1  0  0  0
 37 42  1  0  0  0
 37 38  2  0  0  0
 38 39  1  0  0  0
 38 78  1  0  0  0
 39 40  2  0  0  0
 39 79  1  0  0  0
 40 41  1  0  0  0
 40 80  1  0  0  0
 41 42  2  0  0  0
 41 81  1  0  0  0
 42 82  1  0  0  0
M  END
$$$$
