@<TRIPOS>MOLECULE
*****
 64 67 0 0 0
SMALL
GASTEIGER
****
Schrodinger Suite 2019-4.
@<TRIPOS>ATOM
      1 C         -22.9918   -2.9601  -32.1531 C.3     1  UNL1       -0.0647
      2 C         -24.3420   -2.5226  -31.5664 C.3     1  UNL1       -0.0493
      3 C         -24.9358   -3.5589  -30.5997 C.3     1  UNL1       -0.0189
      4 C         -26.3010   -3.1431  -30.0516 C.3     1  UNL1       -0.0584
      5 C         -24.0074   -3.9320  -29.4556 C.ar    1  UNL1       -0.0444
      6 C         -23.9945   -5.2618  -28.9979 C.ar    1  UNL1       -0.0566
      7 C         -23.1648   -5.6346  -27.9312 C.ar    1  UNL1       -0.0400
      8 C         -22.3165   -4.6830  -27.3270 C.ar    1  UNL1        0.0379
      9 N         -21.4313   -5.0751  -26.2875 N.am    1  UNL1       -0.2488
     10 C         -21.6748   -4.7548  -24.9799 C.2     1  UNL1        0.2870
     11 O         -20.8876   -5.0046  -24.0726 O.2     1  UNL1       -0.2662
     12 C         -22.9247   -4.0393  -24.6014 C.ar    1  UNL1        0.1896
     13 C         -23.1690   -3.2071  -23.5395 C.ar    1  UNL1       -0.0113
     14 C         -24.5291   -2.8046  -23.6355 C.ar    1  UNL1       -0.0231
     15 C         -25.0273   -3.4379  -24.7333 C.ar    1  UNL1        0.0928
     16 O         -24.0751   -4.2051  -25.3164 O.2     1  UNL1       -0.4583
     17 C         -20.2524   -5.8287  -26.7909 C.3     1  UNL1        0.1338
     18 C         -20.5898   -7.3164  -26.9554 C.2     1  UNL1        0.2387
     19 O         -21.1033   -7.9334  -26.0286 O.2     1  UNL1       -0.2734
     20 N         -20.3266   -7.8732  -28.1416 N.am    1  UNL1       -0.3106
     21 C         -20.7019   -9.2299  -28.5184 C.3     1  UNL1        0.0232
     22 C         -19.6168   -9.8427  -29.3988 C.3     1  UNL1       -0.0345
     23 C         -19.9511   -9.4016  -30.8286 C.3     1  UNL1       -0.0513
     24 C         -21.4186   -8.9448  -30.8207 C.3     1  UNL1       -0.0513
     25 C         -21.9469   -9.2140  -29.4099 C.3     1  UNL1       -0.0345
     26 C         -18.9402   -5.6588  -26.0630 C.ar    1  UNL1        0.0002
     27 C         -18.1392   -6.7111  -25.5368 C.ar    1  UNL1       -0.0534
     28 C         -16.8649   -6.4438  -25.0107 C.ar    1  UNL1       -0.0433
     29 C         -16.4211   -5.1164  -24.9966 C.ar    1  UNL1        0.0276
     30 N         -17.1700   -4.0926  -25.4391 N.ar    1  UNL1       -0.2629
     31 C         -18.3851   -4.3648  -25.9497 C.ar    1  UNL1        0.0330
     32 C         -22.3270   -3.3510  -27.7785 C.ar    1  UNL1       -0.0400
     33 C         -23.1799   -2.9723  -28.8286 C.ar    1  UNL1       -0.0566
     34 H         -22.6407   -2.2430  -32.8914 H       1  UNL1        0.0230
     35 H         -22.2168   -3.0344  -31.3912 H       1  UNL1        0.0230
     36 H         -23.0685   -3.9304  -32.6419 H       1  UNL1        0.0230
     37 H         -25.0529   -2.3733  -32.3759 H       1  UNL1        0.0268
     38 H         -24.2393   -1.5497  -31.0838 H       1  UNL1        0.0268
     39 H         -25.0949   -4.4613  -31.1925 H       1  UNL1        0.0346
     40 H         -26.8377   -4.0061  -29.6787 H       1  UNL1        0.0236
     41 H         -26.1791   -2.4844  -29.1995 H       1  UNL1        0.0236
     42 H         -26.9299   -2.6654  -30.8035 H       1  UNL1        0.0236
     43 H         -24.6230   -6.0040  -29.4651 H       1  UNL1        0.0621
     44 H         -23.1824   -6.6570  -27.5875 H       1  UNL1        0.0636
     45 H         -22.4494   -2.9171  -22.7886 H       1  UNL1        0.0657
     46 H         -25.0880   -2.1569  -22.9789 H       1  UNL1        0.0649
     47 H         -25.9905   -3.4624  -25.2126 H       1  UNL1        0.1029
     48 H         -20.0692   -5.4508  -27.7996 H       1  UNL1        0.0652
     49 H         -19.8933   -7.3044  -28.8539 H       1  UNL1        0.1490
     50 H         -20.8575   -9.8481  -27.6330 H       1  UNL1        0.0498
     51 H         -19.6803  -10.9295  -29.3341 H       1  UNL1        0.0283
     52 H         -18.6074   -9.5599  -29.0948 H       1  UNL1        0.0283
     53 H         -19.7824  -10.2130  -31.5371 H       1  UNL1        0.0266
     54 H         -19.3074   -8.5737  -31.1290 H       1  UNL1        0.0266
     55 H         -22.0091   -9.4632  -31.5748 H       1  UNL1        0.0266
     56 H         -21.4742   -7.8778  -31.0406 H       1  UNL1        0.0266
     57 H         -22.6978   -8.4889  -29.0947 H       1  UNL1        0.0283
     58 H         -22.4163  -10.1979  -29.3890 H       1  UNL1        0.0283
     59 H         -18.4550   -7.7429  -25.5614 H       1  UNL1        0.0622
     60 H         -16.2309   -7.2407  -24.6511 H       1  UNL1        0.0633
     61 H         -15.4320   -4.8749  -24.6513 H       1  UNL1        0.0829
     62 H         -18.9270   -3.5096  -26.3236 H       1  UNL1        0.0833
     63 H         -21.6869   -2.6255  -27.3064 H       1  UNL1        0.0636
     64 H         -23.1777   -1.9431  -29.1506 H       1  UNL1        0.0621
@<TRIPOS>BOND
     1     1     2    1
     2     1    34    1
     3     1    35    1
     4     1    36    1
     5     2     3    1
     6     2    37    1
     7     2    38    1
     8     3     4    1
     9     3     5    1
    10     3    39    1
    11     4    40    1
    12     4    41    1
    13     4    42    1
    14     5    33   ar
    15     5     6   ar
    16     6     7   ar
    17     6    43    1
    18     7     8   ar
    19     7    44    1
    20     8     9    1
    21     8    32   ar
    22     9    10   am
    23     9    17    1
    24    10    11    2
    25    10    12    1
    26    12    16   ar
    27    12    13   ar
    28    13    14   ar
    29    13    45    1
    30    14    15   ar
    31    14    46    1
    32    15    16   ar
    33    15    47    1
    34    17    18    1
    35    17    26    1
    36    17    48    1
    37    18    19    2
    38    18    20   am
    39    20    21    1
    40    20    49    1
    41    21    25    1
    42    21    22    1
    43    21    50    1
    44    22    23    1
    45    22    51    1
    46    22    52    1
    47    23    24    1
    48    23    53    1
    49    23    54    1
    50    24    25    1
    51    24    55    1
    52    24    56    1
    53    25    57    1
    54    25    58    1
    55    26    31   ar
    56    26    27   ar
    57    27    28   ar
    58    27    59    1
    59    28    29   ar
    60    28    60    1
    61    29    30   ar
    62    29    61    1
    63    30    31   ar
    64    31    62    1
    65    32    33   ar
    66    32    63    1
    67    33    64    1
