
                    3D
 Schrodinger Suite 2019-4.
 64 67  0  0  1  0            999 V2000
  -22.9918   -2.9601  -32.1531 C   0  0  0  0  0  0
  -24.3420   -2.5226  -31.5664 C   0  0  0  0  0  0
  -24.9358   -3.5589  -30.5997 C   0  0  2  0  0  0
  -26.3010   -3.1431  -30.0516 C   0  0  0  0  0  0
  -24.0074   -3.9320  -29.4556 C   0  0  0  0  0  0
  -23.9945   -5.2618  -28.9979 C   0  0  0  0  0  0
  -23.1648   -5.6346  -27.9312 C   0  0  0  0  0  0
  -22.3165   -4.6830  -27.3270 C   0  0  0  0  0  0
  -21.4313   -5.0751  -26.2875 N   0  0  0  0  0  0
  -21.6748   -4.7548  -24.9799 C   0  0  0  0  0  0
  -20.8876   -5.0046  -24.0726 O   0  0  0  0  0  0
  -22.9247   -4.0393  -24.6014 C   0  0  0  0  0  0
  -23.1690   -3.2071  -23.5395 C   0  0  0  0  0  0
  -24.5291   -2.8046  -23.6355 C   0  0  0  0  0  0
  -25.0273   -3.4379  -24.7333 C   0  0  0  0  0  0
  -24.0751   -4.2051  -25.3164 O   0  0  0  0  0  0
  -20.2524   -5.8287  -26.7909 C   0  0  2  0  0  0
  -20.5898   -7.3164  -26.9554 C   0  0  0  0  0  0
  -21.1033   -7.9334  -26.0286 O   0  0  0  0  0  0
  -20.3266   -7.8732  -28.1416 N   0  0  0  0  0  0
  -20.7019   -9.2299  -28.5184 C   0  0  0  0  0  0
  -19.6168   -9.8427  -29.3988 C   0  0  0  0  0  0
  -19.9511   -9.4016  -30.8286 C   0  0  0  0  0  0
  -21.4186   -8.9448  -30.8207 C   0  0  0  0  0  0
  -21.9469   -9.2140  -29.4099 C   0  0  0  0  0  0
  -18.9402   -5.6588  -26.0630 C   0  0  0  0  0  0
  -18.1392   -6.7111  -25.5368 C   0  0  0  0  0  0
  -16.8649   -6.4438  -25.0107 C   0  0  0  0  0  0
  -16.4211   -5.1164  -24.9966 C   0  0  0  0  0  0
  -17.1700   -4.0926  -25.4391 N   0  0  0  0  0  0
  -18.3851   -4.3648  -25.9497 C   0  0  0  0  0  0
  -22.3270   -3.3510  -27.7785 C   0  0  0  0  0  0
  -23.1799   -2.9723  -28.8286 C   0  0  0  0  0  0
  -22.6407   -2.2430  -32.8914 H   0  0  0  0  0  0
  -22.2168   -3.0344  -31.3912 H   0  0  0  0  0  0
  -23.0685   -3.9304  -32.6419 H   0  0  0  0  0  0
  -25.0529   -2.3733  -32.3759 H   0  0  0  0  0  0
  -24.2393   -1.5497  -31.0838 H   0  0  0  0  0  0
  -25.0949   -4.4613  -31.1925 H   0  0  0  0  0  0
  -26.8377   -4.0061  -29.6787 H   0  0  0  0  0  0
  -26.1791   -2.4844  -29.1995 H   0  0  0  0  0  0
  -26.9299   -2.6654  -30.8035 H   0  0  0  0  0  0
  -24.6230   -6.0040  -29.4651 H   0  0  0  0  0  0
  -23.1824   -6.6570  -27.5875 H   0  0  0  0  0  0
  -22.4494   -2.9171  -22.7886 H   0  0  0  0  0  0
  -25.0880   -2.1569  -22.9789 H   0  0  0  0  0  0
  -25.9905   -3.4624  -25.2126 H   0  0  0  0  0  0
  -20.0692   -5.4508  -27.7996 H   0  0  0  0  0  0
  -19.8933   -7.3044  -28.8539 H   0  0  0  0  0  0
  -20.8575   -9.8481  -27.6330 H   0  0  0  0  0  0
  -19.6803  -10.9295  -29.3341 H   0  0  0  0  0  0
  -18.6074   -9.5599  -29.0948 H   0  0  0  0  0  0
  -19.7824  -10.2130  -31.5371 H   0  0  0  0  0  0
  -19.3074   -8.5737  -31.1290 H   0  0  0  0  0  0
  -22.0091   -9.4632  -31.5748 H   0  0  0  0  0  0
  -21.4742   -7.8778  -31.0406 H   0  0  0  0  0  0
  -22.6978   -8.4889  -29.0947 H   0  0  0  0  0  0
  -22.4163  -10.1979  -29.3890 H   0  0  0  0  0  0
  -18.4550   -7.7429  -25.5614 H   0  0  0  0  0  0
  -16.2309   -7.2407  -24.6511 H   0  0  0  0  0  0
  -15.4320   -4.8749  -24.6513 H   0  0  0  0  0  0
  -18.9270   -3.5096  -26.3236 H   0  0  0  0  0  0
  -21.6869   -2.6255  -27.3064 H   0  0  0  0  0  0
  -23.1777   -1.9431  -29.1506 H   0  0  0  0  0  0
  1  2  1  0  0  0
  1 34  1  0  0  0
  1 35  1  0  0  0
  1 36  1  0  0  0
  2  3  1  0  0  0
  2 37  1  0  0  0
  2 38  1  0  0  0
  3  4  1  0  0  0
  3  5  1  0  0  0
  3 39  1  0  0  0
  4 40  1  0  0  0
  4 41  1  0  0  0
  4 42  1  0  0  0
  5 33  1  0  0  0
  5  6  2  0  0  0
  6  7  1  0  0  0
  6 43  1  0  0  0
  7  8  2  0  0  0
  7 44  1  0  0  0
  8  9  1  0  0  0
  8 32  1  0  0  0
  9 10  1  0  0  0
  9 17  1  0  0  0
 10 11  2  0  0  0
 10 12  1  0  0  0
 12 16  1  0  0  0
 12 13  2  0  0  0
 13 14  1  0  0  0
 13 45  1  0  0  0
 14 15  2  0  0  0
 14 46  1  0  0  0
 15 16  1  0  0  0
 15 47  1  0  0  0
 17 18  1  0  0  0
 17 26  1  0  0  0
 17 48  1  0  0  0
 18 19  2  0  0  0
 18 20  1  0  0  0
 20 21  1  0  0  0
 20 49  1  0  0  0
 21 25  1  0  0  0
 21 22  1  0  0  0
 21 50  1  0  0  0
 22 23  1  0  0  0
 22 51  1  0  0  0
 22 52  1  0  0  0
 23 24  1  0  0  0
 23 53  1  0  0  0
 23 54  1  0  0  0
 24 25  1  0  0  0
 24 55  1  0  0  0
 24 56  1  0  0  0
 25 57  1  0  0  0
 25 58  1  0  0  0
 26 31  1  0  0  0
 26 27  2  0  0  0
 27 28  1  0  0  0
 27 59  1  0  0  0
 28 29  2  0  0  0
 28 60  1  0  0  0
 29 30  1  0  0  0
 29 61  1  0  0  0
 30 31  2  0  0  0
 31 62  1  0  0  0
 32 33  2  0  0  0
 32 63  1  0  0  0
 33 64  1  0  0  0
M  END
$$$$
