@<TRIPOS>MOLECULE
*****
 62 64 0 0 0
SMALL
GASTEIGER
****
Schrodinger Suite 2019-4.
@<TRIPOS>ATOM
      1 C         -18.4223   -9.4618  -29.2778 C.3     1  UNL1       -0.0442
      2 C         -19.6416   -9.2817  -28.3577 C.3     1  UNL1        0.0262
      3 C         -20.9272   -9.6282  -29.1354 C.3     1  UNL1       -0.0442
      4 C         -19.4736  -10.1976  -27.1250 C.3     1  UNL1       -0.0442
      5 N         -19.6620   -7.8731  -27.9635 N.am    1  UNL1       -0.3087
      6 C         -20.4888   -7.2710  -27.0920 C.2     1  UNL1        0.2389
      7 O         -21.4092   -7.8498  -26.5198 O.2     1  UNL1       -0.2734
      8 C         -20.2105   -5.7854  -26.8087 C.3     1  UNL1        0.1339
      9 C         -18.8828   -5.6456  -26.0995 C.ar    1  UNL1        0.0003
     10 C         -18.1638   -6.6922  -25.4568 C.ar    1  UNL1       -0.0534
     11 C         -16.8792   -6.4591  -24.9404 C.ar    1  UNL1       -0.0433
     12 C         -16.3582   -5.1620  -25.0255 C.ar    1  UNL1        0.0276
     13 N         -17.0389   -4.1355  -25.5602 N.ar    1  UNL1       -0.2629
     14 C         -18.2556   -4.3813  -26.0779 C.ar    1  UNL1        0.0330
     15 N         -21.3769   -5.0695  -26.2197 N.am    1  UNL1       -0.2475
     16 C         -21.4893   -4.6837  -24.9181 C.2     1  UNL1        0.3069
     17 O         -20.6030   -4.7975  -24.0754 O.2     1  UNL1       -0.2644
     18 C         -22.7199   -3.9633  -24.4958 C.ar    1  UNL1        0.2842
     19 N         -24.0156   -4.1911  -24.7278 N.ar    1  UNL1       -0.2135
     20 C         -24.6855   -3.1882  -24.0440 C.ar    1  UNL1        0.0664
     21 C         -23.7466   -2.4209  -23.4172 C.ar    1  UNL1        0.1126
     22 O         -22.5127   -2.9321  -23.6399 O.2     1  UNL1       -0.4404
     23 C         -22.2979   -4.6152  -27.2036 C.ar    1  UNL1        0.0379
     24 C         -22.1380   -3.3328  -27.7575 C.ar    1  UNL1       -0.0400
     25 C         -22.9040   -2.9403  -28.8686 C.ar    1  UNL1       -0.0563
     26 C         -23.8252   -3.8343  -29.4617 C.ar    1  UNL1       -0.0419
     27 C         -24.5044   -3.4516  -30.7858 C.3     1  UNL1       -0.0127
     28 C         -23.4297   -3.1319  -31.8369 C.3     1  UNL1       -0.0560
     29 C         -25.4083   -2.2343  -30.5983 C.3     1  UNL1       -0.0560
     30 C         -25.3834   -4.5739  -31.3473 C.3     1  UNL1       -0.0560
     31 C         -24.0324   -5.0924  -28.8450 C.ar    1  UNL1       -0.0563
     32 C         -23.2807   -5.4778  -27.7227 C.ar    1  UNL1       -0.0400
     33 H         -17.4933   -9.2230  -28.7577 H       1  UNL1        0.0250
     34 H         -18.3408  -10.4883  -29.6360 H       1  UNL1        0.0250
     35 H         -18.4809   -8.8130  -30.1529 H       1  UNL1        0.0250
     36 H         -21.8231   -9.4924  -28.5312 H       1  UNL1        0.0250
     37 H         -21.0364   -8.9967  -30.0177 H       1  UNL1        0.0250
     38 H         -20.9173  -10.6648  -29.4729 H       1  UNL1        0.0250
     39 H         -20.3406  -10.1705  -26.4661 H       1  UNL1        0.0250
     40 H         -19.3391  -11.2363  -27.4264 H       1  UNL1        0.0250
     41 H         -18.6015   -9.9134  -26.5348 H       1  UNL1        0.0250
     42 H         -18.9399   -7.2987  -28.3731 H       1  UNL1        0.1493
     43 H         -20.0611   -5.3465  -27.7984 H       1  UNL1        0.0652
     44 H         -18.5592   -7.6933  -25.3804 H       1  UNL1        0.0622
     45 H         -16.3000   -7.2572  -24.5000 H       1  UNL1        0.0633
     46 H         -15.3632   -4.9451  -24.6816 H       1  UNL1        0.0829
     47 H         -18.7518   -3.5264  -26.5091 H       1  UNL1        0.0833
     48 H         -25.7584   -3.0825  -24.0658 H       1  UNL1        0.0862
     49 H         -23.7605   -1.5327  -22.8269 H       1  UNL1        0.1046
     50 H         -21.3865   -2.6764  -27.3534 H       1  UNL1        0.0636
     51 H         -22.7301   -1.9651  -29.2967 H       1  UNL1        0.0621
     52 H         -23.8872   -2.8675  -32.7839 H       1  UNL1        0.0238
     53 H         -22.8002   -2.2895  -31.5500 H       1  UNL1        0.0238
     54 H         -22.7793   -3.9899  -32.0129 H       1  UNL1        0.0238
     55 H         -25.8949   -1.9427  -31.5303 H       1  UNL1        0.0238
     56 H         -26.1892   -2.4763  -29.8795 H       1  UNL1        0.0238
     57 H         -24.8436   -1.3727  -30.2460 H       1  UNL1        0.0238
     58 H         -25.8144   -4.3023  -32.3116 H       1  UNL1        0.0238
     59 H         -24.8133   -5.4907  -31.4879 H       1  UNL1        0.0238
     60 H         -26.2050   -4.7844  -30.6693 H       1  UNL1        0.0238
     61 H         -24.7221   -5.8167  -29.2458 H       1  UNL1        0.0621
     62 H         -23.4227   -6.4623  -27.3045 H       1  UNL1        0.0636
@<TRIPOS>BOND
     1     1     2    1
     2     1    33    1
     3     1    34    1
     4     1    35    1
     5     2     3    1
     6     2     4    1
     7     2     5    1
     8     3    36    1
     9     3    37    1
    10     3    38    1
    11     4    39    1
    12     4    40    1
    13     4    41    1
    14     5     6   am
    15     5    42    1
    16     6     7    2
    17     6     8    1
    18     8     9    1
    19     8    15    1
    20     8    43    1
    21     9    14   ar
    22     9    10   ar
    23    10    11   ar
    24    10    44    1
    25    11    12   ar
    26    11    45    1
    27    12    13   ar
    28    12    46    1
    29    13    14   ar
    30    14    47    1
    31    15    16   am
    32    15    23    1
    33    16    17    2
    34    16    18    1
    35    18    22   ar
    36    18    19   ar
    37    19    20   ar
    38    20    21   ar
    39    20    48    1
    40    21    22   ar
    41    21    49    1
    42    23    32   ar
    43    23    24   ar
    44    24    25   ar
    45    24    50    1
    46    25    26   ar
    47    25    51    1
    48    26    27    1
    49    26    31   ar
    50    27    28    1
    51    27    29    1
    52    27    30    1
    53    28    52    1
    54    28    53    1
    55    28    54    1
    56    29    55    1
    57    29    56    1
    58    29    57    1
    59    30    58    1
    60    30    59    1
    61    30    60    1
    62    31    32   ar
    63    31    61    1
    64    32    62    1
