@<TRIPOS>MOLECULE
*****
 53 55 0 0 0
SMALL
GASTEIGER
****
Schrodinger Suite 2019-4.
@<TRIPOS>ATOM
      1 C         -22.3309   -2.9216  -28.5290 C.3     1  UNL1        0.0817
      2 O         -21.1218   -3.0367  -27.8006 O.3     1  UNL1       -0.4675
      3 C         -21.0185   -2.4438  -26.6029 C.2     1  UNL1        0.3131
      4 O         -21.9072   -1.7775  -26.0908 O.2     1  UNL1       -0.2502
      5 C         -19.7143   -2.7666  -25.8428 C.3     1  UNL1        0.0686
      6 C         -19.5889   -1.8343  -24.6273 C.3     1  UNL1       -0.0491
      7 C         -18.5038   -2.4638  -26.7262 C.3     1  UNL1       -0.0372
      8 C         -17.2060   -3.0507  -26.1915 C.3     1  UNL1       -0.0512
      9 C         -17.2958   -4.5312  -25.9354 C.3     1  UNL1       -0.0433
     10 C         -18.4161   -4.8986  -24.9685 C.3     1  UNL1       -0.0030
     11 C         -18.1051   -4.3864  -23.5625 C.3     1  UNL1       -0.0552
     12 C         -18.4893   -6.4236  -24.9145 C.ar    1  UNL1       -0.0380
     13 C         -17.3080   -7.1603  -24.6683 C.ar    1  UNL1       -0.0575
     14 C         -17.3093   -8.5605  -24.7107 C.ar    1  UNL1       -0.0580
     15 C         -18.4989   -9.2532  -24.9977 C.ar    1  UNL1       -0.0445
     16 C         -18.4866  -10.7692  -25.0852 C.3     1  UNL1       -0.0215
     17 C         -18.5274  -11.2407  -26.5451 C.3     1  UNL1       -0.0586
     18 C         -19.6090  -11.4072  -24.2524 C.3     1  UNL1       -0.0586
     19 C         -19.6904   -8.5281  -25.2063 C.ar    1  UNL1       -0.0549
     20 C         -19.7001   -7.1223  -25.1472 C.ar    1  UNL1       -0.0434
     21 C         -21.0169   -6.3938  -25.3665 C.3     1  UNL1       -0.0271
     22 C         -20.9766   -4.9282  -24.9200 C.3     1  UNL1       -0.0444
     23 C         -19.7224   -4.3005  -25.5570 C.3     1  UNL1       -0.0158
     24 H         -22.1752   -3.2762  -29.5448 H       1  UNL1        0.0661
     25 H         -23.1125   -3.5224  -28.0631 H       1  UNL1        0.0661
     26 H         -22.6809   -1.8915  -28.5956 H       1  UNL1        0.0661
     27 H         -18.5752   -1.5789  -24.3339 H       1  UNL1        0.0240
     28 H         -19.9851   -0.8587  -24.8789 H       1  UNL1        0.0240
     29 H         -20.0796   -2.2568  -23.7579 H       1  UNL1        0.0240
     30 H         -18.3731   -1.3901  -26.8444 H       1  UNL1        0.0276
     31 H         -18.6770   -2.9054  -27.6964 H       1  UNL1        0.0276
     32 H         -16.9559   -2.6054  -25.2434 H       1  UNL1        0.0266
     33 H         -16.3954   -2.8477  -26.8867 H       1  UNL1        0.0266
     34 H         -16.3192   -4.8775  -25.5985 H       1  UNL1        0.0274
     35 H         -17.5311   -5.0266  -26.8683 H       1  UNL1        0.0274
     36 H         -18.9166   -4.6055  -22.8757 H       1  UNL1        0.0238
     37 H         -17.1777   -4.8256  -23.2054 H       1  UNL1        0.0238
     38 H         -17.9275   -3.3288  -23.4958 H       1  UNL1        0.0238
     39 H         -16.3733   -6.6642  -24.4617 H       1  UNL1        0.0621
     40 H         -16.3860   -9.0961  -24.5419 H       1  UNL1        0.0620
     41 H         -17.5440  -11.1140  -24.6573 H       1  UNL1        0.0343
     42 H         -18.5298  -12.3289  -26.6051 H       1  UNL1        0.0235
     43 H         -19.4161  -10.8759  -27.0618 H       1  UNL1        0.0235
     44 H         -17.6515  -10.8915  -27.0881 H       1  UNL1        0.0235
     45 H         -20.5980  -11.1732  -24.6459 H       1  UNL1        0.0235
     46 H         -19.5128  -12.4937  -24.2455 H       1  UNL1        0.0235
     47 H         -19.5829  -11.0677  -23.2175 H       1  UNL1        0.0235
     48 H         -20.6119   -9.0478  -25.4206 H       1  UNL1        0.0623
     49 H         -21.8270   -6.9208  -24.8751 H       1  UNL1        0.0313
     50 H         -21.2466   -6.4365  -26.4314 H       1  UNL1        0.0313
     51 H         -20.9509   -4.8397  -23.8350 H       1  UNL1        0.0272
     52 H         -21.9069   -4.4566  -25.2310 H       1  UNL1        0.0272
     53 H         -19.7418   -4.7140  -26.5690 H       1  UNL1        0.0320
@<TRIPOS>BOND
     1     1     2    1
     2     1    24    1
     3     1    25    1
     4     1    26    1
     5     2     3    1
     6     3     4    2
     7     3     5    1
     8     5    23    1
     9     5     6    1
    10     5     7    1
    11     6    27    1
    12     6    28    1
    13     6    29    1
    14     7     8    1
    15     7    30    1
    16     7    31    1
    17     8     9    1
    18     8    32    1
    19     8    33    1
    20     9    10    1
    21     9    34    1
    22     9    35    1
    23    10    23    1
    24    10    11    1
    25    10    12    1
    26    11    36    1
    27    11    37    1
    28    11    38    1
    29    12    20   ar
    30    12    13   ar
    31    13    14   ar
    32    13    39    1
    33    14    15   ar
    34    14    40    1
    35    15    16    1
    36    15    19   ar
    37    16    17    1
    38    16    18    1
    39    16    41    1
    40    17    42    1
    41    17    43    1
    42    17    44    1
    43    18    45    1
    44    18    46    1
    45    18    47    1
    46    19    20   ar
    47    19    48    1
    48    20    21    1
    49    21    22    1
    50    21    49    1
    51    21    50    1
    52    22    23    1
    53    22    51    1
    54    22    52    1
    55    23    53    1
