
                    3D
 Schrodinger Suite 2019-4.
 53 55  0  0  1  0            999 V2000
  -22.3309   -2.9216  -28.5290 C   0  0  0  0  0  0
  -21.1218   -3.0367  -27.8006 O   0  0  0  0  0  0
  -21.0185   -2.4438  -26.6029 C   0  0  0  0  0  0
  -21.9072   -1.7775  -26.0908 O   0  0  0  0  0  0
  -19.7143   -2.7666  -25.8428 C   0  0  2  0  0  0
  -19.5889   -1.8343  -24.6273 C   0  0  0  0  0  0
  -18.5038   -2.4638  -26.7262 C   0  0  0  0  0  0
  -17.2060   -3.0507  -26.1915 C   0  0  0  0  0  0
  -17.2958   -4.5312  -25.9354 C   0  0  0  0  0  0
  -18.4161   -4.8986  -24.9685 C   0  0  2  0  0  0
  -18.1051   -4.3864  -23.5625 C   0  0  0  0  0  0
  -18.4893   -6.4236  -24.9145 C   0  0  0  0  0  0
  -17.3080   -7.1603  -24.6683 C   0  0  0  0  0  0
  -17.3093   -8.5605  -24.7107 C   0  0  0  0  0  0
  -18.4989   -9.2532  -24.9977 C   0  0  0  0  0  0
  -18.4866  -10.7692  -25.0852 C   0  0  0  0  0  0
  -18.5274  -11.2407  -26.5451 C   0  0  0  0  0  0
  -19.6090  -11.4072  -24.2524 C   0  0  0  0  0  0
  -19.6904   -8.5281  -25.2063 C   0  0  0  0  0  0
  -19.7001   -7.1223  -25.1472 C   0  0  0  0  0  0
  -21.0169   -6.3938  -25.3665 C   0  0  0  0  0  0
  -20.9766   -4.9282  -24.9200 C   0  0  0  0  0  0
  -19.7224   -4.3005  -25.5570 C   0  0  1  0  0  0
  -22.1752   -3.2762  -29.5448 H   0  0  0  0  0  0
  -23.1125   -3.5224  -28.0631 H   0  0  0  0  0  0
  -22.6809   -1.8915  -28.5956 H   0  0  0  0  0  0
  -18.5752   -1.5789  -24.3339 H   0  0  0  0  0  0
  -19.9851   -0.8587  -24.8789 H   0  0  0  0  0  0
  -20.0796   -2.2568  -23.7579 H   0  0  0  0  0  0
  -18.3731   -1.3901  -26.8444 H   0  0  0  0  0  0
  -18.6770   -2.9054  -27.6964 H   0  0  0  0  0  0
  -16.9559   -2.6054  -25.2434 H   0  0  0  0  0  0
  -16.3954   -2.8477  -26.8867 H   0  0  0  0  0  0
  -16.3192   -4.8775  -25.5985 H   0  0  0  0  0  0
  -17.5311   -5.0266  -26.8683 H   0  0  0  0  0  0
  -18.9166   -4.6055  -22.8757 H   0  0  0  0  0  0
  -17.1777   -4.8256  -23.2054 H   0  0  0  0  0  0
  -17.9275   -3.3288  -23.4958 H   0  0  0  0  0  0
  -16.3733   -6.6642  -24.4617 H   0  0  0  0  0  0
  -16.3860   -9.0961  -24.5419 H   0  0  0  0  0  0
  -17.5440  -11.1140  -24.6573 H   0  0  0  0  0  0
  -18.5298  -12.3289  -26.6051 H   0  0  0  0  0  0
  -19.4161  -10.8759  -27.0618 H   0  0  0  0  0  0
  -17.6515  -10.8915  -27.0881 H   0  0  0  0  0  0
  -20.5980  -11.1732  -24.6459 H   0  0  0  0  0  0
  -19.5128  -12.4937  -24.2455 H   0  0  0  0  0  0
  -19.5829  -11.0677  -23.2175 H   0  0  0  0  0  0
  -20.6119   -9.0478  -25.4206 H   0  0  0  0  0  0
  -21.8270   -6.9208  -24.8751 H   0  0  0  0  0  0
  -21.2466   -6.4365  -26.4314 H   0  0  0  0  0  0
  -20.9509   -4.8397  -23.8350 H   0  0  0  0  0  0
  -21.9069   -4.4566  -25.2310 H   0  0  0  0  0  0
  -19.7418   -4.7140  -26.5690 H   0  0  0  0  0  0
  1  2  1  0  0  0
  1 24  1  0  0  0
  1 25  1  0  0  0
  1 26  1  0  0  0
  2  3  1  0  0  0
  3  4  2  0  0  0
  3  5  1  0  0  0
  5 23  1  0  0  0
  5  6  1  0  0  0
  5  7  1  0  0  0
  6 27  1  0  0  0
  6 28  1  0  0  0
  6 29  1  0  0  0
  7  8  1  0  0  0
  7 30  1  0  0  0
  7 31  1  0  0  0
  8  9  1  0  0  0
  8 32  1  0  0  0
  8 33  1  0  0  0
  9 10  1  0  0  0
  9 34  1  0  0  0
  9 35  1  0  0  0
 10 23  1  0  0  0
 10 11  1  0  0  0
 10 12  1  0  0  0
 11 36  1  0  0  0
 11 37  1  0  0  0
 11 38  1  0  0  0
 12 20  2  0  0  0
 12 13  1  0  0  0
 13 14  2  0  0  0
 13 39  1  0  0  0
 14 15  1  0  0  0
 14 40  1  0  0  0
 15 16  1  0  0  0
 15 19  2  0  0  0
 16 17  1  0  0  0
 16 18  1  0  0  0
 16 41  1  0  0  0
 17 42  1  0  0  0
 17 43  1  0  0  0
 17 44  1  0  0  0
 18 45  1  0  0  0
 18 46  1  0  0  0
 18 47  1  0  0  0
 19 20  1  0  0  0
 19 48  1  0  0  0
 20 21  1  0  0  0
 21 22  1  0  0  0
 21 49  1  0  0  0
 21 50  1  0  0  0
 22 23  1  0  0  0
 22 51  1  0  0  0
 22 52  1  0  0  0
 23 53  1  0  0  0
M  END
$$$$
