@<TRIPOS>MOLECULE
*****
 85 86 0 0 0
SMALL
GASTEIGER
****
Schrodinger Suite 2019-4.
@<TRIPOS>ATOM
      1 C         -26.3696   -2.5896  -22.1433 C.3     1  UNL1       -0.0306
      2 C         -24.9356   -2.1521  -22.0816 C.3     1  UNL1        0.0900
      3 O         -24.1287   -3.0975  -22.7113 O.3     1  UNL1       -0.4618
      4 C         -22.8323   -2.8808  -22.7372 C.2     1  UNL1        0.3317
      5 O         -22.2232   -2.1127  -21.9907 O.2     1  UNL1       -0.2456
      6 C         -22.2442   -3.6508  -23.8179 C.2     1  UNL1        0.0203
      7 C         -20.9495   -3.5311  -24.1198 C.2     1  UNL1       -0.0572
      8 C         -20.3039   -4.2893  -25.2434 C.3     1  UNL1        0.0427
      9 C         -18.7806   -4.1961  -25.1262 C.3     1  UNL1       -0.0197
     10 C         -18.0532   -5.2912  -25.9127 C.3     1  UNL1        0.0389
     11 C         -18.4178   -6.7260  -25.4861 C.3     1  UNL1       -0.0262
     12 C         -17.0944   -7.4950  -25.4227 C.3     1  UNL1        0.0123
     13 N         -16.0885   -6.4601  -25.3757 N.am    1  UNL1       -0.3151
     14 C         -16.5600   -5.2505  -25.6538 C.2     1  UNL1        0.2162
     15 O         -15.8902   -4.2260  -25.7135 O.2     1  UNL1       -0.2755
     16 N         -20.7554   -3.8132  -26.5543 N.am    1  UNL1       -0.3075
     17 C         -21.5284   -4.5196  -27.3955 C.2     1  UNL1        0.2338
     18 O         -22.0540   -5.5898  -27.0847 O.2     1  UNL1       -0.2738
     19 C         -21.7023   -3.9675  -28.8220 C.3     1  UNL1        0.0996
     20 C         -23.1250   -3.3857  -28.9959 C.3     1  UNL1       -0.0236
     21 C         -23.5440   -3.0154  -30.4414 C.3     1  UNL1       -0.0446
     22 C         -22.4906   -2.2012  -31.2066 C.3     1  UNL1       -0.0626
     23 C         -24.8617   -2.2414  -30.4409 C.3     1  UNL1       -0.0626
     24 N         -21.4739   -5.0507  -29.7767 N.am    1  UNL1       -0.3025
     25 C         -20.2579   -5.5358  -30.0803 C.2     1  UNL1        0.2343
     26 O         -19.2163   -5.0817  -29.6128 O.2     1  UNL1       -0.2738
     27 C         -20.2034   -6.7611  -30.9920 C.3     1  UNL1        0.1048
     28 N         -19.3997   -6.4415  -32.1646 N.am    1  UNL1       -0.2696
     29 C         -19.9015   -6.4410  -33.4488 C.2     1  UNL1        0.4012
     30 O         -21.0711   -6.6542  -33.7620 O.2     1  UNL1       -0.2265
     31 O         -18.9105   -6.1722  -34.3088 O.3     1  UNL1       -0.4456
     32 C         -19.1655   -6.1540  -35.7062 C.3     1  UNL1        0.1191
     33 C         -19.1365   -7.5385  -36.3315 C.ar    1  UNL1       -0.0103
     34 C         -17.9412   -8.0245  -36.8965 C.ar    1  UNL1       -0.0554
     35 C         -17.8850   -9.3187  -37.4473 C.ar    1  UNL1       -0.0614
     36 C         -19.0336  -10.1326  -37.4445 C.ar    1  UNL1       -0.0617
     37 C         -20.2377   -9.6462  -36.8994 C.ar    1  UNL1       -0.0614
     38 C         -20.2889   -8.3528  -36.3451 C.ar    1  UNL1       -0.0554
     39 C         -19.6054   -7.9845  -30.2511 C.3     1  UNL1       -0.0196
     40 C         -19.3790   -9.1918  -31.1791 C.3     1  UNL1       -0.0605
     41 C         -20.5213   -8.3928  -29.0861 C.3     1  UNL1       -0.0605
     42 H         -27.0056   -1.8170  -21.7195 H       1  UNL1        0.0262
     43 H         -26.6217   -2.7163  -23.1916 H       1  UNL1        0.0262
     44 H         -26.5376   -3.5284  -21.6156 H       1  UNL1        0.0262
     45 H         -24.5957   -1.9889  -21.0652 H       1  UNL1        0.0695
     46 H         -24.8476   -1.2328  -22.6490 H       1  UNL1        0.0695
     47 H         -22.8767   -4.3172  -24.3873 H       1  UNL1        0.0686
     48 H         -20.3133   -2.8683  -23.5507 H       1  UNL1        0.0593
     49 H         -20.6097   -5.3244  -25.0909 H       1  UNL1        0.0543
     50 H         -18.4921   -4.2792  -24.0777 H       1  UNL1        0.0293
     51 H         -18.4462   -3.2092  -25.4504 H       1  UNL1        0.0293
     52 H         -18.2094   -5.1662  -26.9844 H       1  UNL1        0.0395
     53 H         -19.1239   -7.1940  -26.1730 H       1  UNL1        0.0288
     54 H         -18.8735   -6.7298  -24.4945 H       1  UNL1        0.0288
     55 H         -16.9327   -8.0962  -26.3170 H       1  UNL1        0.0462
     56 H         -17.0362   -8.1460  -24.5488 H       1  UNL1        0.0462
     57 H         -15.1067   -6.6628  -25.2297 H       1  UNL1        0.1487
     58 H         -20.3948   -2.9240  -26.8721 H       1  UNL1        0.1493
     59 H         -20.9640   -3.1941  -29.0096 H       1  UNL1        0.0594
     60 H         -23.1960   -2.4931  -28.3738 H       1  UNL1        0.0290
     61 H         -23.8637   -4.0838  -28.5966 H       1  UNL1        0.0290
     62 H         -23.7132   -3.9444  -30.9883 H       1  UNL1        0.0296
     63 H         -22.8741   -1.8763  -32.1726 H       1  UNL1        0.0232
     64 H         -22.1884   -1.3126  -30.6517 H       1  UNL1        0.0232
     65 H         -21.6040   -2.7997  -31.4076 H       1  UNL1        0.0232
     66 H         -25.2871   -2.1926  -31.4424 H       1  UNL1        0.0232
     67 H         -25.5870   -2.6985  -29.7734 H       1  UNL1        0.0232
     68 H         -24.7054   -1.2184  -30.1065 H       1  UNL1        0.0232
     69 H         -22.2881   -5.4948  -30.1753 H       1  UNL1        0.1495
     70 H         -21.2237   -7.0101  -31.2921 H       1  UNL1        0.0598
     71 H         -18.4160   -6.2351  -32.0492 H       1  UNL1        0.1528
     72 H         -18.3786   -5.5570  -36.1632 H       1  UNL1        0.0749
     73 H         -20.1092   -5.6560  -35.9291 H       1  UNL1        0.0749
     74 H         -17.0512   -7.4197  -36.8767 H       1  UNL1        0.0621
     75 H         -16.9624   -9.6857  -37.8718 H       1  UNL1        0.0618
     76 H         -18.9923  -11.1250  -37.8699 H       1  UNL1        0.0618
     77 H         -21.1266  -10.2609  -36.9149 H       1  UNL1        0.0618
     78 H         -21.2188   -7.9853  -35.9392 H       1  UNL1        0.0621
     79 H         -18.6317   -7.7142  -29.8372 H       1  UNL1        0.0318
     80 H         -19.0052  -10.0509  -30.6228 H       1  UNL1        0.0233
     81 H         -20.3083   -9.4914  -31.6654 H       1  UNL1        0.0233
     82 H         -18.6477   -8.9765  -31.9573 H       1  UNL1        0.0233
     83 H         -20.5270   -7.6440  -28.2942 H       1  UNL1        0.0233
     84 H         -21.5490   -8.5292  -29.4259 H       1  UNL1        0.0233
     85 H         -20.2161   -9.3340  -28.6386 H       1  UNL1        0.0233
@<TRIPOS>BOND
     1     1     2    1
     2     1    42    1
     3     1    43    1
     4     1    44    1
     5     2     3    1
     6     2    45    1
     7     2    46    1
     8     3     4    1
     9     4     5    2
    10     4     6    1
    11     6     7    2
    12     6    47    1
    13     7     8    1
    14     7    48    1
    15     8     9    1
    16     8    16    1
    17     8    49    1
    18     9    10    1
    19     9    50    1
    20     9    51    1
    21    10    14    1
    22    10    11    1
    23    10    52    1
    24    11    12    1
    25    11    53    1
    26    11    54    1
    27    12    13    1
    28    12    55    1
    29    12    56    1
    30    13    14   am
    31    13    57    1
    32    14    15    2
    33    16    17   am
    34    16    58    1
    35    17    18    2
    36    17    19    1
    37    19    20    1
    38    19    24    1
    39    19    59    1
    40    20    21    1
    41    20    60    1
    42    20    61    1
    43    21    22    1
    44    21    23    1
    45    21    62    1
    46    22    63    1
    47    22    64    1
    48    22    65    1
    49    23    66    1
    50    23    67    1
    51    23    68    1
    52    24    25   am
    53    24    69    1
    54    25    26    2
    55    25    27    1
    56    27    28    1
    57    27    39    1
    58    27    70    1
    59    28    29   am
    60    28    71    1
    61    29    30    2
    62    29    31    1
    63    31    32    1
    64    32    33    1
    65    32    72    1
    66    32    73    1
    67    33    38   ar
    68    33    34   ar
    69    34    35   ar
    70    34    74    1
    71    35    36   ar
    72    35    75    1
    73    36    37   ar
    74    36    76    1
    75    37    38   ar
    76    37    77    1
    77    38    78    1
    78    39    40    1
    79    39    41    1
    80    39    79    1
    81    40    80    1
    82    40    81    1
    83    40    82    1
    84    41    83    1
    85    41    84    1
    86    41    85    1
