
                    3D
 Schrodinger Suite 2019-4.
 85 86  0  0  1  0            999 V2000
  -26.3696   -2.5896  -22.1433 C   0  0  0  0  0  0
  -24.9356   -2.1521  -22.0816 C   0  0  0  0  0  0
  -24.1287   -3.0975  -22.7113 O   0  0  0  0  0  0
  -22.8323   -2.8808  -22.7372 C   0  0  0  0  0  0
  -22.2232   -2.1127  -21.9907 O   0  0  0  0  0  0
  -22.2442   -3.6508  -23.8179 C   0  0  0  0  0  0
  -20.9495   -3.5311  -24.1198 C   0  0  0  0  0  0
  -20.3039   -4.2893  -25.2434 C   0  0  2  0  0  0
  -18.7806   -4.1961  -25.1262 C   0  0  0  0  0  0
  -18.0532   -5.2912  -25.9127 C   0  0  2  0  0  0
  -18.4178   -6.7260  -25.4861 C   0  0  0  0  0  0
  -17.0944   -7.4950  -25.4227 C   0  0  0  0  0  0
  -16.0885   -6.4601  -25.3757 N   0  0  0  0  0  0
  -16.5600   -5.2505  -25.6538 C   0  0  0  0  0  0
  -15.8902   -4.2260  -25.7135 O   0  0  0  0  0  0
  -20.7554   -3.8132  -26.5543 N   0  0  0  0  0  0
  -21.5284   -4.5196  -27.3955 C   0  0  0  0  0  0
  -22.0540   -5.5898  -27.0847 O   0  0  0  0  0  0
  -21.7023   -3.9675  -28.8220 C   0  0  2  0  0  0
  -23.1250   -3.3857  -28.9959 C   0  0  0  0  0  0
  -23.5440   -3.0154  -30.4414 C   0  0  0  0  0  0
  -22.4906   -2.2012  -31.2066 C   0  0  0  0  0  0
  -24.8617   -2.2414  -30.4409 C   0  0  0  0  0  0
  -21.4739   -5.0507  -29.7767 N   0  0  0  0  0  0
  -20.2579   -5.5358  -30.0803 C   0  0  0  0  0  0
  -19.2163   -5.0817  -29.6128 O   0  0  0  0  0  0
  -20.2034   -6.7611  -30.9920 C   0  0  1  0  0  0
  -19.3997   -6.4415  -32.1646 N   0  0  0  0  0  0
  -19.9015   -6.4410  -33.4488 C   0  0  0  0  0  0
  -21.0711   -6.6542  -33.7620 O   0  0  0  0  0  0
  -18.9105   -6.1722  -34.3088 O   0  0  0  0  0  0
  -19.1655   -6.1540  -35.7062 C   0  0  0  0  0  0
  -19.1365   -7.5385  -36.3315 C   0  0  0  0  0  0
  -17.9412   -8.0245  -36.8965 C   0  0  0  0  0  0
  -17.8850   -9.3187  -37.4473 C   0  0  0  0  0  0
  -19.0336  -10.1326  -37.4445 C   0  0  0  0  0  0
  -20.2377   -9.6462  -36.8994 C   0  0  0  0  0  0
  -20.2889   -8.3528  -36.3451 C   0  0  0  0  0  0
  -19.6054   -7.9845  -30.2511 C   0  0  0  0  0  0
  -19.3790   -9.1918  -31.1791 C   0  0  0  0  0  0
  -20.5213   -8.3928  -29.0861 C   0  0  0  0  0  0
  -27.0056   -1.8170  -21.7195 H   0  0  0  0  0  0
  -26.6217   -2.7163  -23.1916 H   0  0  0  0  0  0
  -26.5376   -3.5284  -21.6156 H   0  0  0  0  0  0
  -24.5957   -1.9889  -21.0652 H   0  0  0  0  0  0
  -24.8476   -1.2328  -22.6490 H   0  0  0  0  0  0
  -22.8767   -4.3172  -24.3873 H   0  0  0  0  0  0
  -20.3133   -2.8683  -23.5507 H   0  0  0  0  0  0
  -20.6097   -5.3244  -25.0909 H   0  0  0  0  0  0
  -18.4921   -4.2792  -24.0777 H   0  0  0  0  0  0
  -18.4462   -3.2092  -25.4504 H   0  0  0  0  0  0
  -18.2094   -5.1662  -26.9844 H   0  0  0  0  0  0
  -19.1239   -7.1940  -26.1730 H   0  0  0  0  0  0
  -18.8735   -6.7298  -24.4945 H   0  0  0  0  0  0
  -16.9327   -8.0962  -26.3170 H   0  0  0  0  0  0
  -17.0362   -8.1460  -24.5488 H   0  0  0  0  0  0
  -15.1067   -6.6628  -25.2297 H   0  0  0  0  0  0
  -20.3948   -2.9240  -26.8721 H   0  0  0  0  0  0
  -20.9640   -3.1941  -29.0096 H   0  0  0  0  0  0
  -23.1960   -2.4931  -28.3738 H   0  0  0  0  0  0
  -23.8637   -4.0838  -28.5966 H   0  0  0  0  0  0
  -23.7132   -3.9444  -30.9883 H   0  0  0  0  0  0
  -22.8741   -1.8763  -32.1726 H   0  0  0  0  0  0
  -22.1884   -1.3126  -30.6517 H   0  0  0  0  0  0
  -21.6040   -2.7997  -31.4076 H   0  0  0  0  0  0
  -25.2871   -2.1926  -31.4424 H   0  0  0  0  0  0
  -25.5870   -2.6985  -29.7734 H   0  0  0  0  0  0
  -24.7054   -1.2184  -30.1065 H   0  0  0  0  0  0
  -22.2881   -5.4948  -30.1753 H   0  0  0  0  0  0
  -21.2237   -7.0101  -31.2921 H   0  0  0  0  0  0
  -18.4160   -6.2351  -32.0492 H   0  0  0  0  0  0
  -18.3786   -5.5570  -36.1632 H   0  0  0  0  0  0
  -20.1092   -5.6560  -35.9291 H   0  0  0  0  0  0
  -17.0512   -7.4197  -36.8767 H   0  0  0  0  0  0
  -16.9624   -9.6857  -37.8718 H   0  0  0  0  0  0
  -18.9923  -11.1250  -37.8699 H   0  0  0  0  0  0
  -21.1266  -10.2609  -36.9149 H   0  0  0  0  0  0
  -21.2188   -7.9853  -35.9392 H   0  0  0  0  0  0
  -18.6317   -7.7142  -29.8372 H   0  0  0  0  0  0
  -19.0052  -10.0509  -30.6228 H   0  0  0  0  0  0
  -20.3083   -9.4914  -31.6654 H   0  0  0  0  0  0
  -18.6477   -8.9765  -31.9573 H   0  0  0  0  0  0
  -20.5270   -7.6440  -28.2942 H   0  0  0  0  0  0
  -21.5490   -8.5292  -29.4259 H   0  0  0  0  0  0
  -20.2161   -9.3340  -28.6386 H   0  0  0  0  0  0
  1  2  1  0  0  0
  1 42  1  0  0  0
  1 43  1  0  0  0
  1 44  1  0  0  0
  2  3  1  0  0  0
  2 45  1  0  0  0
  2 46  1  0  0  0
  3  4  1  0  0  0
  4  5  2  0  0  0
  4  6  1  0  0  0
  6  7  2  0  0  0
  6 47  1  0  0  0
  7  8  1  0  0  0
  7 48  1  0  0  0
  8  9  1  0  0  0
  8 16  1  0  0  0
  8 49  1  0  0  0
  9 10  1  0  0  0
  9 50  1  0  0  0
  9 51  1  0  0  0
 10 14  1  0  0  0
 10 11  1  0  0  0
 10 52  1  0  0  0
 11 12  1  0  0  0
 11 53  1  0  0  0
 11 54  1  0  0  0
 12 13  1  0  0  0
 12 55  1  0  0  0
 12 56  1  0  0  0
 13 14  1  0  0  0
 13 57  1  0  0  0
 14 15  2  0  0  0
 16 17  1  0  0  0
 16 58  1  0  0  0
 17 18  2  0  0  0
 17 19  1  0  0  0
 19 20  1  0  0  0
 19 24  1  0  0  0
 19 59  1  0  0  0
 20 21  1  0  0  0
 20 60  1  0  0  0
 20 61  1  0  0  0
 21 22  1  0  0  0
 21 23  1  0  0  0
 21 62  1  0  0  0
 22 63  1  0  0  0
 22 64  1  0  0  0
 22 65  1  0  0  0
 23 66  1  0  0  0
 23 67  1  0  0  0
 23 68  1  0  0  0
 24 25  1  0  0  0
 24 69  1  0  0  0
 25 26  2  0  0  0
 25 27  1  0  0  0
 27 28  1  0  0  0
 27 39  1  0  0  0
 27 70  1  0  0  0
 28 29  1  0  0  0
 28 71  1  0  0  0
 29 30  2  0  0  0
 29 31  1  0  0  0
 31 32  1  0  0  0
 32 33  1  0  0  0
 32 72  1  0  0  0
 32 73  1  0  0  0
 33 38  1  0  0  0
 33 34  2  0  0  0
 34 35  1  0  0  0
 34 74  1  0  0  0
 35 36  2  0  0  0
 35 75  1  0  0  0
 36 37  1  0  0  0
 36 76  1  0  0  0
 37 38  2  0  0  0
 37 77  1  0  0  0
 38 78  1  0  0  0
 39 40  1  0  0  0
 39 41  1  0  0  0
 39 79  1  0  0  0
 40 80  1  0  0  0
 40 81  1  0  0  0
 40 82  1  0  0  0
 41 83  1  0  0  0
 41 84  1  0  0  0
 41 85  1  0  0  0
M  END
$$$$
