@<TRIPOS>MOLECULE
/home/lixiaoshuang.lxs/med/data/m_pro/PDB_BA/6m0k/6m0k_ligand.pdb
 34 37 0 0 0
SMALL
GASTEIGER

@<TRIPOS>ATOM
      1  C02      -11.8060   11.0650   69.1040 C.2   405  FJC405      0.2829
      2  C07       -9.2110    5.9380   71.4940 C.ar  405  FJC405      0.0001
      3  C08       -9.9910    5.3160   70.5080 C.ar  405  FJC405      0.0015
      4  C09      -10.7980    6.0840   69.6630 C.ar  405  FJC405      0.0191
      5  C10      -10.8210    7.4960   69.8090 C.ar  405  FJC405      0.0815
      6  C05      -10.0590    8.1030   70.7730 C.ar  405  FJC405      0.0193
      7  C06       -9.2360    7.3200   71.6370 C.ar  405  FJC405      0.0015
      8  C04      -10.3040    9.5030   70.6550 C.ar  405  FJC405      0.0253
      9  C03      -11.2140    9.6780   69.6010 C.ar  405  FJC405      0.1361
     10  N11      -11.5170    8.4800   69.1140 N.ar  405  FJC405     -0.2407
     11  O01      -12.5340   11.1260   68.1840 O.2   405  FJC405     -0.2667
     12  N12      -11.4340   12.3090   69.8490 N.am  405  FJC405     -0.1924
     13  C13      -11.9960   13.6090   69.4290 C.3   405  FJC405      0.1774
     14  C22      -11.2950   14.1680   68.2050 C.2   405  FJC405      0.2619
     15  O34      -10.1200   14.2720   68.1590 O.2   405  FJC405     -0.2715
     16  C14      -11.9320   14.5340   70.6300 C.3   405  FJC405      0.0575
     17  C15      -12.7430   13.8230   71.7160 C.ar  405  FJC405     -0.0177
     18  C21      -12.1110   13.0780   72.6860 C.ar  405  FJC405      0.0254
     19  C16      -14.1280   13.8990   71.6890 C.ar  405  FJC405     -0.0041
     20  C19      -12.8620   12.4260   73.6500 C.ar  405  FJC405      0.1398
     21  C18      -14.2450   12.5120   73.6280 C.ar  405  FJC405      0.0296
     22  C17      -14.8780   13.2470   72.6530 C.ar  405  FJC405      0.0020
     23  F20      -12.2440   11.7010   74.6220 F     405  FJC405     -0.2042
     24  O31      -13.4790   11.8800   63.2550 O.2   405  FJC405     -0.2734
     25  C30      -12.3760   11.8050   63.6280 C.2   405  FJC405      0.2410
     26  N29      -11.2730   10.8710   63.0900 N.am  405  FJC405     -0.2054
     27  C28      -10.2400   11.1140   63.7840 C.3   405  FJC405      0.1156
     28  C27      -10.5120   12.5790   64.6200 C.3   405  FJC405      0.0326
     29  C26      -11.6940   12.6540   64.8140 C.3   405  FJC405      0.0821
     30  C25      -12.1610   14.2540   64.7040 C.3   405  FJC405      0.0389
     31  C24      -11.5990   15.1070   65.8630 C.3   405  FJC405      0.1601
     32  N23      -12.1280   14.5560   67.0880 N.am  405  FJC405     -0.1977
     33  C32      -11.9960   16.5490   65.6760 C.2   405  FJC405      0.2287
     34  O33      -11.5040   17.1540   64.7910 O.2   405  FJC405     -0.2864
@<TRIPOS>BOND
     1    26    25   am
     2    26    27    1
     3    24    25    2
     4    25    29    1
     5    27    28    1
     6    28    29    1
     7    30    29    1
     8    30    31    1
     9    34    33    2
    10    33    31    1
    11    31    32    1
    12    32    14   am
    13    15    14    2
    14    11     1    2
    15    14    13    1
    16     1     9    1
    17     1    12   am
    18    10     9   ar
    19    10     5   ar
    20    13    12    1
    21    13    16    1
    22     9     8   ar
    23     4     5   ar
    24     4     3   ar
    25     5     6   ar
    26     3     2   ar
    27    16    17    1
    28     8     6   ar
    29     6     7   ar
    30     2     7   ar
    31    19    17   ar
    32    19    22   ar
    33    17    18   ar
    34    22    21   ar
    35    18    20   ar
    36    21    20   ar
    37    20    23    1
