@<TRIPOS>MOLECULE
*****
 67 70 0 0 0
SMALL
GASTEIGER
****
Schrodinger Suite 2019-4.
@<TRIPOS>ATOM
      1 C         -18.6738   -0.9503  -26.0707 C.3     1  UNL1       -0.0626
      2 C         -18.5664   -2.4727  -26.1569 C.3     1  UNL1       -0.0446
      3 C         -17.1444   -2.9222  -26.5418 C.3     1  UNL1       -0.0626
      4 C         -19.6097   -3.1253  -27.1028 C.3     1  UNL1       -0.0236
      5 C         -20.8356   -3.9367  -26.5960 C.3     1  UNL1        0.0996
      6 N         -20.7286   -4.4225  -25.2241 N.am    1  UNL1       -0.3025
      7 C         -19.6833   -5.0099  -24.6282 C.2     1  UNL1        0.2340
      8 O         -19.5206   -4.8526  -23.4239 O.2     1  UNL1       -0.2738
      9 C         -18.6521   -5.7888  -25.4630 C.3     1  UNL1        0.0998
     10 C         -18.7488   -7.2978  -25.2100 C.3     1  UNL1       -0.0177
     11 C         -17.3096   -7.8092  -25.3311 C.3     1  UNL1        0.0261
     12 C         -16.5128   -6.5587  -25.0177 C.2     1  UNL1        0.2137
     13 O         -15.3147   -6.5493  -24.7751 O.2     1  UNL1       -0.2758
     14 N         -17.3017   -5.4938  -25.0291 N.am    1  UNL1       -0.3040
     15 C         -21.2936   -4.9774  -27.6210 C.2     1  UNL1        0.2339
     16 O         -21.5609   -6.1343  -27.3072 O.2     1  UNL1       -0.2738
     17 N         -21.3084   -4.5184  -28.8764 N.am    1  UNL1       -0.3037
     18 C         -21.4312   -5.2748  -30.1036 C.3     1  UNL1        0.0888
     19 C         -21.9779   -4.3031  -31.1740 C.3     1  UNL1       -0.0160
     20 C         -23.4701   -3.9274  -30.9950 C.3     1  UNL1        0.0390
     21 C         -24.0724   -3.4071  -32.3046 C.3     1  UNL1       -0.0262
     22 C         -24.4832   -1.9601  -32.0391 C.3     1  UNL1        0.0123
     23 N         -24.3745   -1.7704  -30.6237 N.am    1  UNL1       -0.3151
     24 C         -23.7496   -2.7708  -30.0233 C.2     1  UNL1        0.2162
     25 O         -23.4661   -2.7703  -28.8310 O.2     1  UNL1       -0.2755
     26 C         -20.0150   -5.7359  -30.5217 C.2     1  UNL1        0.2079
     27 O         -18.9998   -5.2281  -30.0458 O.2     1  UNL1       -0.2879
     28 C         -19.8512   -6.8256  -31.5214 C.ar    1  UNL1        0.1465
     29 N         -18.6741   -7.3452  -31.8877 N.ar    1  UNL1       -0.2360
     30 C         -18.8483   -8.2831  -32.8947 C.ar    1  UNL1        0.0790
     31 C         -17.8360   -9.0077  -33.5650 C.ar    1  UNL1       -0.0352
     32 C         -18.1574   -9.9383  -34.5722 C.ar    1  UNL1       -0.0597
     33 C         -19.5016  -10.1629  -34.9272 C.ar    1  UNL1       -0.0606
     34 C         -20.5271   -9.4574  -34.2754 C.ar    1  UNL1       -0.0459
     35 C         -20.2000   -8.5266  -33.2735 C.ar    1  UNL1        0.0396
     36 S         -21.2684   -7.5186  -32.3102 S.2     1  UNL1       -0.0643
     37 H         -19.6559   -0.5839  -26.3593 H       1  UNL1        0.0232
     38 H         -18.5137   -0.6116  -25.0512 H       1  UNL1        0.0232
     39 H         -17.9269   -0.4644  -26.6902 H       1  UNL1        0.0232
     40 H         -18.7194   -2.7731  -25.1297 H       1  UNL1        0.0296
     41 H         -17.1039   -3.8639  -27.0833 H       1  UNL1        0.0232
     42 H         -16.6359   -2.1847  -27.1523 H       1  UNL1        0.0232
     43 H         -16.5486   -3.1046  -25.6543 H       1  UNL1        0.0232
     44 H         -19.0694   -3.7871  -27.7744 H       1  UNL1        0.0290
     45 H         -20.0260   -2.3572  -27.7351 H       1  UNL1        0.0290
     46 H         -21.6715   -3.2405  -26.5545 H       1  UNL1        0.0594
     47 H         -21.4224   -4.0421  -24.5983 H       1  UNL1        0.1495
     48 H         -18.7210   -5.6039  -26.5318 H       1  UNL1        0.0595
     49 H         -19.4313   -7.7910  -25.9024 H       1  UNL1        0.0292
     50 H         -19.0974   -7.4944  -24.1984 H       1  UNL1        0.0292
     51 H         -17.0771   -8.1400  -26.3436 H       1  UNL1        0.0359
     52 H         -17.0888   -8.6149  -24.6302 H       1  UNL1        0.0359
     53 H         -16.9903   -4.5554  -24.8229 H       1  UNL1        0.1494
     54 H         -21.1206   -3.5329  -28.9928 H       1  UNL1        0.1495
     55 H         -22.0949   -6.1290  -29.9626 H       1  UNL1        0.0582
     56 H         -21.8629   -4.7616  -32.1556 H       1  UNL1        0.0295
     57 H         -21.3703   -3.3974  -31.2180 H       1  UNL1        0.0295
     58 H         -24.0363   -4.8015  -30.6708 H       1  UNL1        0.0395
     59 H         -24.9315   -4.0016  -32.6042 H       1  UNL1        0.0288
     60 H         -23.3602   -3.4435  -33.1286 H       1  UNL1        0.0288
     61 H         -25.4779   -1.7131  -32.4076 H       1  UNL1        0.0462
     62 H         -23.7459   -1.2981  -32.4741 H       1  UNL1        0.0462
     63 H         -24.6263   -0.9067  -30.1629 H       1  UNL1        0.1487
     64 H         -16.8009   -8.8439  -33.3002 H       1  UNL1        0.0639
     65 H         -17.3710  -10.4807  -35.0777 H       1  UNL1        0.0618
     66 H         -19.7435  -10.8756  -35.7025 H       1  UNL1        0.0618
     67 H         -21.5554   -9.6329  -34.5440 H       1  UNL1        0.0629
@<TRIPOS>BOND
     1     1     2    1
     2     1    37    1
     3     1    38    1
     4     1    39    1
     5     2     3    1
     6     2     4    1
     7     2    40    1
     8     3    41    1
     9     3    42    1
    10     3    43    1
    11     4     5    1
    12     4    44    1
    13     4    45    1
    14     5     6    1
    15     5    15    1
    16     5    46    1
    17     6     7   am
    18     6    47    1
    19     7     8    2
    20     7     9    1
    21     9    14    1
    22     9    10    1
    23     9    48    1
    24    10    11    1
    25    10    49    1
    26    10    50    1
    27    11    12    1
    28    11    51    1
    29    11    52    1
    30    12    13    2
    31    12    14   am
    32    14    53    1
    33    15    16    2
    34    15    17   am
    35    17    18    1
    36    17    54    1
    37    18    19    1
    38    18    26    1
    39    18    55    1
    40    19    20    1
    41    19    56    1
    42    19    57    1
    43    20    24    1
    44    20    21    1
    45    20    58    1
    46    21    22    1
    47    21    59    1
    48    21    60    1
    49    22    23    1
    50    22    61    1
    51    22    62    1
    52    23    24   am
    53    23    63    1
    54    24    25    2
    55    26    27    2
    56    26    28    1
    57    28    36   ar
    58    28    29   ar
    59    29    30   ar
    60    30    35   ar
    61    30    31   ar
    62    31    32   ar
    63    31    64    1
    64    32    33   ar
    65    32    65    1
    66    33    34   ar
    67    33    66    1
    68    34    35   ar
    69    34    67    1
    70    35    36   ar
