@<TRIPOS>MOLECULE
*****
 41 42 0 0 0
SMALL
GASTEIGER
****
Schrodinger Suite 2019-4.
@<TRIPOS>ATOM
      1 C         -17.8156   -8.0855  -26.8015 C.ar    1  UNL1       -0.0554
      2 C         -17.0696   -8.2702  -25.6412 C.ar    1  UNL1       -0.0614
      3 C         -16.7187   -7.1704  -24.8643 C.ar    1  UNL1       -0.0617
      4 C         -17.1251   -5.8881  -25.2229 C.ar    1  UNL1       -0.0614
      5 C         -17.8695   -5.7026  -26.3850 C.ar    1  UNL1       -0.0554
      6 C         -18.2123   -6.8026  -27.1856 C.ar    1  UNL1       -0.0103
      7 C         -18.9422   -6.6306  -28.5215 C.3     1  UNL1        0.1191
      8 O         -19.6789   -5.4104  -28.5894 O.3     1  UNL1       -0.4456
      9 C         -20.8266   -5.2777  -27.9046 C.2     1  UNL1        0.4011
     10 N         -21.1068   -3.9278  -27.7326 N.am    1  UNL1       -0.2711
     11 C         -22.3113   -3.4755  -26.9914 C.3     1  UNL1        0.0897
     12 C         -22.2700   -3.9025  -25.5148 C.2     1  UNL1        0.1682
     13 C         -20.8903   -4.2175  -24.9085 C.3     1  UNL1        0.0827
     14 CL        -20.7990   -3.8141  -23.1860 Cl      1  UNL1       -0.1173
     15 O         -23.2735   -3.9536  -24.8032 O.2     1  UNL1       -0.2942
     16 C         -23.6576   -3.7918  -27.7144 C.3     1  UNL1       -0.0021
     17 C         -23.5342   -3.5503  -29.2181 C.ar    1  UNL1       -0.0450
     18 C         -23.3635   -2.2486  -29.6946 C.ar    1  UNL1       -0.0558
     19 C         -23.0706   -2.0320  -31.0367 C.ar    1  UNL1       -0.0262
     20 C         -22.9627   -3.1198  -31.8982 C.ar    1  UNL1        0.1234
     21 C         -23.1790   -4.4178  -31.4432 C.ar    1  UNL1       -0.0262
     22 C         -23.4690   -4.6343  -30.0994 C.ar    1  UNL1       -0.0558
     23 F         -22.6262   -2.9143  -33.1861 F       1  UNL1       -0.2055
     24 O         -21.4763   -6.2131  -27.4371 O.2     1  UNL1       -0.2265
     25 H         -18.0531   -8.9383  -27.4182 H       1  UNL1        0.0621
     26 H         -16.7372   -9.2584  -25.3601 H       1  UNL1        0.0618
     27 H         -16.1089   -7.3123  -23.9859 H       1  UNL1        0.0618
     28 H         -16.8399   -5.0428  -24.6152 H       1  UNL1        0.0618
     29 H         -18.1452   -4.6993  -26.6743 H       1  UNL1        0.0621
     30 H         -19.6042   -7.4812  -28.6978 H       1  UNL1        0.0749
     31 H         -18.2042   -6.6319  -29.3241 H       1  UNL1        0.0749
     32 H         -20.6702   -3.2620  -28.3554 H       1  UNL1        0.1527
     33 H         -22.2209   -2.3885  -26.9726 H       1  UNL1        0.0582
     34 H         -20.1064   -3.6502  -25.4084 H       1  UNL1        0.0508
     35 H         -20.6683   -5.2792  -25.0163 H       1  UNL1        0.0508
     36 H         -24.4688   -3.1837  -27.3149 H       1  UNL1        0.0335
     37 H         -23.9372   -4.8347  -27.5525 H       1  UNL1        0.0335
     38 H         -23.4041   -1.4139  -29.0124 H       1  UNL1        0.0621
     39 H         -22.9017   -1.0301  -31.4023 H       1  UNL1        0.0646
     40 H         -23.0954   -5.2523  -32.1236 H       1  UNL1        0.0646
     41 H         -23.5899   -5.6448  -29.7361 H       1  UNL1        0.0621
@<TRIPOS>BOND
     1     1     6   ar
     2     1     2   ar
     3     1    25    1
     4     2     3   ar
     5     2    26    1
     6     3     4   ar
     7     3    27    1
     8     4     5   ar
     9     4    28    1
    10     5     6   ar
    11     5    29    1
    12     6     7    1
    13     7     8    1
    14     7    30    1
    15     7    31    1
    16     8     9    1
    17     9    10   am
    18     9    24    2
    19    10    11    1
    20    10    32    1
    21    11    12    1
    22    11    16    1
    23    11    33    1
    24    12    13    1
    25    12    15    2
    26    13    14    1
    27    13    34    1
    28    13    35    1
    29    16    17    1
    30    16    36    1
    31    16    37    1
    32    17    22   ar
    33    17    18   ar
    34    18    19   ar
    35    18    38    1
    36    19    20   ar
    37    19    39    1
    38    20    21   ar
    39    20    23    1
    40    21    22   ar
    41    21    40    1
    42    22    41    1
