@<TRIPOS>MOLECULE
/home/lixiaoshuang.lxs/med/data/m_pro/PDB_BA/6m2n/6m2n_ligand.pdb
 20 22 0 0 0
SMALL
GASTEIGER

@<TRIPOS>ATOM
      1  C4       -32.8240  -67.0700   38.1880 C.ar  401  3WL401      0.0030
      2  C5       -33.1170  -68.1600   37.3920 C.ar  401  3WL401      0.0001
      3  C6       -32.9570  -65.8680   40.3630 C.ar  401  3WL401      0.1484
      4  C7       -31.9930  -64.9650   40.1000 C.ar  401  3WL401      0.0797
      5  C8       -31.7320  -63.8500   40.9620 C.ar  401  3WL401      0.2049
      6  C10      -32.4870  -62.7200   43.0830 C.ar  401  3WL401      0.2435
      7  C13      -34.4390  -64.7020   43.4210 C.ar  401  3WL401      0.0832
      8  O        -30.8310  -63.0180   40.7220 O.2   401  3WL401     -0.2862
      9  C9       -32.5940  -63.7540   42.1290 C.ar  401  3WL401      0.1158
     10  C14      -33.5820  -64.7220   42.3400 C.ar  401  3WL401      0.1548
     11  C12      -34.3130  -63.6740   44.3390 C.ar  401  3WL401      0.2406
     12  O2       -35.1310  -63.6080   45.4160 O.3   401  3WL401     -0.2829
     13  C11      -33.3360  -62.6820   44.1660 C.ar  401  3WL401      0.2730
     14  O3       -33.2030  -61.6620   45.0630 O.3   401  3WL401     -0.2797
     15  O4       -31.5530  -61.7540   42.9300 O.3   401  3WL401     -0.2828
     16  O1       -33.7550  -65.7640   41.4610 O.2   401  3WL401     -0.4531
     17  C3       -33.2590  -67.0250   39.5110 C.ar  401  3WL401      0.0347
     18  C2       -34.0080  -68.0940   40.0040 C.ar  401  3WL401      0.0030
     19  C1       -34.2910  -69.1800   39.1990 C.ar  401  3WL401      0.0001
     20  C        -33.8480  -69.2110   37.8970 C.ar  401  3WL401      0.0000
@<TRIPOS>BOND
     1     2    20   ar
     2     2     1   ar
     3    20    19   ar
     4     1    17   ar
     5    19    18   ar
     6    17    18   ar
     7    17     3    1
     8     4     3   ar
     9     4     5   ar
    10     3    16   ar
    11     8     5    2
    12     5     9   ar
    13    16    10   ar
    14     9    10   ar
    15     9     6   ar
    16    10     7   ar
    17    15     6    1
    18     6    13   ar
    19     7    11   ar
    20    13    11   ar
    21    13    14    1
    22    11    12    1
