@<TRIPOS>MOLECULE
*****
 75 77 0 0 0
SMALL
GASTEIGER
****
Schrodinger Suite 2019-4.
@<TRIPOS>ATOM
      1 C         -26.0226   -5.0979  -21.2624 C.3     1  UNL1       -0.0493
      2 C         -25.5095   -3.8447  -21.9739 C.3     1  UNL1        0.0118
      3 N         -25.0289   -4.1371  -23.3273 N.am    1  UNL1       -0.3020
      4 C         -26.0645   -4.3687  -24.3444 C.3     1  UNL1        0.0118
      5 C         -26.2520   -3.1291  -25.2285 C.3     1  UNL1       -0.0493
      6 C         -23.7159   -4.0794  -23.6317 C.2     1  UNL1        0.2156
      7 O         -22.8827   -3.5008  -22.9299 O.2     1  UNL1       -0.2756
      8 C         -23.2548   -4.8688  -24.8547 C.3     1  UNL1        0.0262
      9 C         -21.7422   -5.1032  -24.8893 C.3     1  UNL1       -0.0189
     10 C         -20.9391   -3.9622  -25.5495 C.3     1  UNL1        0.0886
     11 N         -21.2742   -3.6723  -26.9487 N.am    1  UNL1       -0.3037
     12 C         -21.7765   -4.5043  -27.8752 C.2     1  UNL1        0.2343
     13 O         -22.1221   -5.6641  -27.6488 O.2     1  UNL1       -0.2738
     14 C         -21.9080   -3.9587  -29.3051 C.3     1  UNL1        0.1048
     15 N         -21.5789   -5.0363  -30.2459 N.am    1  UNL1       -0.2696
     16 C         -20.3388   -5.6661  -30.2528 C.2     1  UNL1        0.4012
     17 O         -19.3166   -5.2494  -29.7082 O.2     1  UNL1       -0.2265
     18 O         -20.4528   -6.8674  -30.8327 O.3     1  UNL1       -0.4456
     19 C         -19.3929   -7.8134  -30.7089 C.3     1  UNL1        0.1191
     20 C         -19.3806   -8.5909  -29.3971 C.ar    1  UNL1       -0.0103
     21 C         -20.5404   -8.7042  -28.5976 C.ar    1  UNL1       -0.0554
     22 C         -20.5295   -9.5044  -27.4392 C.ar    1  UNL1       -0.0614
     23 C         -19.3632  -10.2058  -27.0805 C.ar    1  UNL1       -0.0617
     24 C         -18.1933  -10.0689  -27.8519 C.ar    1  UNL1       -0.0614
     25 C         -18.2020   -9.2618  -29.0058 C.ar    1  UNL1       -0.0554
     26 C         -23.3038   -3.3210  -29.5741 C.3     1  UNL1       -0.0196
     27 C         -24.5208   -4.1696  -29.1696 C.3     1  UNL1       -0.0605
     28 C         -23.4544   -2.8155  -31.0184 C.3     1  UNL1       -0.0605
     29 C         -19.4197   -3.9860  -25.3006 C.2     1  UNL1        0.2079
     30 O         -18.8192   -2.9525  -25.0308 O.2     1  UNL1       -0.2879
     31 C         -18.6373   -5.2511  -25.3407 C.ar    1  UNL1        0.1465
     32 N         -19.1100   -6.4773  -25.0983 N.ar    1  UNL1       -0.2360
     33 C         -18.0669   -7.3782  -24.9722 C.ar    1  UNL1        0.0790
     34 C         -18.1634   -8.7287  -24.5722 C.ar    1  UNL1       -0.0352
     35 C         -17.0189   -9.5431  -24.4759 C.ar    1  UNL1       -0.0597
     36 C         -15.7534   -9.0142  -24.7809 C.ar    1  UNL1       -0.0606
     37 C         -15.6335   -7.6676  -25.1639 C.ar    1  UNL1       -0.0459
     38 C         -16.7732   -6.8546  -25.2397 C.ar    1  UNL1        0.0396
     39 S         -16.8894   -5.1367  -25.5974 S.2     1  UNL1       -0.0643
     40 H         -26.3181   -4.8658  -20.2396 H       1  UNL1        0.0245
     41 H         -26.8900   -5.5256  -21.7642 H       1  UNL1        0.0245
     42 H         -25.2509   -5.8670  -21.2145 H       1  UNL1        0.0245
     43 H         -24.7075   -3.4497  -21.3551 H       1  UNL1        0.0462
     44 H         -26.2721   -3.0725  -21.9875 H       1  UNL1        0.0462
     45 H         -27.0048   -4.6265  -23.8627 H       1  UNL1        0.0462
     46 H         -25.8528   -5.2388  -24.9649 H       1  UNL1        0.0462
     47 H         -27.2459   -3.0971  -25.6635 H       1  UNL1        0.0245
     48 H         -26.1497   -2.2077  -24.6567 H       1  UNL1        0.0245
     49 H         -25.5264   -3.1159  -26.0394 H       1  UNL1        0.0245
     50 H         -23.6066   -4.3780  -25.7598 H       1  UNL1        0.0359
     51 H         -23.7307   -5.8492  -24.8239 H       1  UNL1        0.0359
     52 H         -21.5612   -6.0611  -25.3690 H       1  UNL1        0.0292
     53 H         -21.3758   -5.2472  -23.8774 H       1  UNL1        0.0292
     54 H         -21.2923   -3.0757  -25.0299 H       1  UNL1        0.0582
     55 H         -21.0383   -2.7415  -27.2637 H       1  UNL1        0.1495
     56 H         -21.1587   -3.1834  -29.4277 H       1  UNL1        0.0598
     57 H         -22.3362   -5.5278  -30.6972 H       1  UNL1        0.1528
     58 H         -18.4263   -7.3336  -30.8501 H       1  UNL1        0.0749
     59 H         -19.4958   -8.5322  -31.5218 H       1  UNL1        0.0749
     60 H         -21.4530   -8.1984  -28.8767 H       1  UNL1        0.0621
     61 H         -21.4228   -9.5960  -26.8394 H       1  UNL1        0.0618
     62 H         -19.3591  -10.8349  -26.2028 H       1  UNL1        0.0618
     63 H         -17.2902  -10.5877  -27.5647 H       1  UNL1        0.0618
     64 H         -17.3047   -9.1772  -29.6022 H       1  UNL1        0.0621
     65 H         -23.3509   -2.4330  -28.9440 H       1  UNL1        0.0318
     66 H         -25.4477   -3.6447  -29.4021 H       1  UNL1        0.0233
     67 H         -24.5379   -5.1179  -29.6968 H       1  UNL1        0.0233
     68 H         -24.5423   -4.3787  -28.1001 H       1  UNL1        0.0233
     69 H         -24.3966   -2.2835  -31.1544 H       1  UNL1        0.0233
     70 H         -22.6534   -2.1214  -31.2669 H       1  UNL1        0.0233
     71 H         -23.4287   -3.6307  -31.7416 H       1  UNL1        0.0233
     72 H         -19.1312   -9.1442  -24.3406 H       1  UNL1        0.0639
     73 H         -17.1131  -10.5758  -24.1760 H       1  UNL1        0.0618
     74 H         -14.8721   -9.6346  -24.7130 H       1  UNL1        0.0618
     75 H         -14.6621   -7.2464  -25.3580 H       1  UNL1        0.0629
@<TRIPOS>BOND
     1     1     2    1
     2     1    40    1
     3     1    41    1
     4     1    42    1
     5     2     3    1
     6     2    43    1
     7     2    44    1
     8     3     4    1
     9     3     6   am
    10     4     5    1
    11     4    45    1
    12     4    46    1
    13     5    47    1
    14     5    48    1
    15     5    49    1
    16     6     7    2
    17     6     8    1
    18     8     9    1
    19     8    50    1
    20     8    51    1
    21     9    10    1
    22     9    52    1
    23     9    53    1
    24    10    11    1
    25    10    29    1
    26    10    54    1
    27    11    12   am
    28    11    55    1
    29    12    13    2
    30    12    14    1
    31    14    15    1
    32    14    26    1
    33    14    56    1
    34    15    16   am
    35    15    57    1
    36    16    17    2
    37    16    18    1
    38    18    19    1
    39    19    20    1
    40    19    58    1
    41    19    59    1
    42    20    25   ar
    43    20    21   ar
    44    21    22   ar
    45    21    60    1
    46    22    23   ar
    47    22    61    1
    48    23    24   ar
    49    23    62    1
    50    24    25   ar
    51    24    63    1
    52    25    64    1
    53    26    27    1
    54    26    28    1
    55    26    65    1
    56    27    66    1
    57    27    67    1
    58    27    68    1
    59    28    69    1
    60    28    70    1
    61    28    71    1
    62    29    30    2
    63    29    31    1
    64    31    39   ar
    65    31    32   ar
    66    32    33   ar
    67    33    38   ar
    68    33    34   ar
    69    34    35   ar
    70    34    72    1
    71    35    36   ar
    72    35    73    1
    73    36    37   ar
    74    36    74    1
    75    37    38   ar
    76    37    75    1
    77    38    39   ar
