@<TRIPOS>MOLECULE
*****
 77 78 0 0 0
SMALL
GASTEIGER
****
Schrodinger Suite 2019-4.
@<TRIPOS>ATOM
      1 C         -13.7541   -8.1006  -24.1480 C.3     0  UNK0        0.0122
      2 C         -14.8198   -7.0195  -24.2777 C.2     0  UNK0        0.2106
      3 O         -15.9712   -7.2664  -23.9246 O.2     0  UNK0       -0.2761
      4 N         -14.4091   -5.8216  -24.7238 N.am    1  SER1       -0.3023
      5 CA        -15.1658   -4.5823  -24.9585 C.3     1  SER1        0.1225
      6 CB        -14.1578   -3.5492  -25.5238 C.3     1  SER1        0.0711
      7 OG        -14.6259   -2.2226  -25.4337 O.3     1  SER1       -0.3927
      8 C         -16.3821   -4.7052  -25.9069 C.2     1  SER1        0.2362
      9 O         -16.5968   -3.8221  -26.7238 O.2     1  SER1       -0.2737
     10 N         -17.1507   -5.7881  -25.8337 N.am    2  VAL2       -0.3022
     11 CA        -18.2016   -6.1279  -26.7805 C.3     2  VAL2        0.1017
     12 C         -19.4470   -5.2358  -26.6726 C.2     2  VAL2        0.2342
     13 O         -19.7300   -4.6541  -25.6247 O.2     2  VAL2       -0.2738
     14 N         -20.1675   -5.1878  -27.8012 N.am    3  PHE3       -0.3025
     15 CA        -21.4765   -4.5708  -27.9743 C.3     3  PHE3        0.0997
     16 CB        -21.7743   -4.4876  -29.4899 C.3     3  PHE3       -0.0231
     17 CG        -22.7485   -3.3877  -29.9633 C.3     3  PHE3       -0.0389
     18 CD2       -24.1963   -3.5302  -29.4367 C.3     3  PHE3       -0.0501
     19 CE2       -25.0848   -2.3742  -29.9405 C.3     3  PHE3       -0.0528
     20 CZ        -25.0711   -2.2668  -31.4804 C.3     3  PHE3       -0.0530
     21 CE1       -23.6358   -2.1941  -32.0354 C.3     3  PHE3       -0.0528
     22 CD1       -22.7734   -3.3510  -31.5097 C.3     3  PHE3       -0.0501
     23 C         -22.4718   -5.4564  -27.2004 C.2     3  PHE3        0.2339
     24 O         -22.6259   -6.6221  -27.5658 O.2     3  PHE3       -0.2738
     25 N         -23.0301   -4.8984  -26.1094 N.am    4  HIS4       -0.3041
     26 CA        -23.7165   -5.5217  -24.9518 C.3     4  HIS4        0.0839
     27 C         -22.7233   -5.3423  -23.8188 C.2     4  HIS4        0.1408
     28 O         -22.9995   -5.5789  -22.6436 O.2     4  HIS4       -0.2991
     29 CB        -24.1127   -7.0246  -25.0847 C.3     4  HIS4        0.0161
     30 CG        -25.2452   -7.3445  -26.0351 C.ar    4  HIS4        0.0610
     31 CD2       -25.9483   -6.5058  -26.8740 C.ar    4  HIS4        0.0243
     32 NE2       -26.8818   -7.2934  -27.5232 N.ar    4  HIS4       -0.3506
     33 CE1       -26.7220   -8.5385  -27.0755 C.ar    4  HIS4        0.0936
     34 ND1       -25.7516   -8.6422  -26.1750 N.ar    4  HIS4       -0.2408
     35 CB        -18.6058   -7.6091  -26.6040 C.3     2  VAL2       -0.0197
     36 CG1       -19.2484   -7.9170  -25.2454 C.3     2  VAL2       -0.0605
     37 CG2       -17.4235   -8.5637  -26.8757 C.3     2  VAL2       -0.0605
     38 H         -12.9286   -7.7524  -23.5283 H       0  UNK0        0.0322
     39 H         -14.1733   -8.9931  -23.6839 H       0  UNK0        0.0322
     40 H         -13.3640   -8.3797  -25.1241 H       0  UNK0        0.0322
     41 H         -13.4597   -5.7860  -25.0645 H       1  SER1        0.1495
     42 HA        -15.5425   -4.2431  -23.9923 H       1  SER1        0.0618
     43 HB1       -13.9784   -3.7582  -26.5737 H       1  SER1        0.0580
     44 HB2       -13.1869   -3.6097  -25.0322 H       1  SER1        0.0580
     45 H         -15.4703   -2.1579  -25.9050 H       1  SER1        0.2095
     46 H         -16.9151   -6.4876  -25.1330 H       2  VAL2        0.1495
     47 HA        -17.8260   -5.9939  -27.7937 H       2  VAL2        0.0597
     48 H         -19.8530   -5.7386  -28.5850 H       3  PHE3        0.1495
     49 HA        -21.4300   -3.5632  -27.5527 H       3  PHE3        0.0594
     50 HB1       -22.0998   -5.4586  -29.8682 H       3  PHE3        0.0290
     51 HB2       -20.8250   -4.2915  -29.9930 H       3  PHE3        0.0290
     52 HG        -22.3704   -2.4224  -29.6164 H       3  PHE3        0.0301
     53 HD21      -24.2092   -3.5521  -28.3477 H       3  PHE3        0.0268
     54 HD22      -24.6148   -4.4915  -29.7390 H       3  PHE3        0.0268
     55 HE21      -24.7247   -1.4328  -29.5242 H       3  PHE3        0.0265
     56 HE22      -26.1032   -2.5052  -29.5756 H       3  PHE3        0.0265
     57 HZ1       -25.6404   -1.3934  -31.7999 H       3  PHE3        0.0265
     58 HZ2       -25.5751   -3.1335  -31.9090 H       3  PHE3        0.0265
     59 HE11      -23.1843   -1.2411  -31.7550 H       3  PHE3        0.0265
     60 HE12      -23.6485   -2.2237  -33.1234 H       3  PHE3        0.0265
     61 HD11      -23.1256   -4.3057  -31.9038 H       3  PHE3        0.0268
     62 HD12      -21.7596   -3.2459  -31.8996 H       3  PHE3        0.0268
     63 H         -22.8439   -3.9122  -25.9850 H       4  HIS4        0.1494
     64 HA        -24.6209   -4.9554  -24.7249 H       4  HIS4        0.0578
     65 H         -21.7237   -5.0049  -24.0920 H       4  HIS4        0.1046
     66 HB1       -24.4419   -7.3973  -24.1131 H       4  HIS4        0.0351
     67 HB2       -23.2540   -7.6449  -25.3480 H       4  HIS4        0.0351
     68 HD2       -25.8555   -5.4455  -27.0564 H       4  HIS4        0.0825
     69 HE2       -27.5421   -6.9796  -28.2224 H       4  HIS4        0.1662
     70 HE1       -27.3206   -9.3739  -27.4138 H       4  HIS4        0.1027
     71 HB        -19.3626   -7.8220  -27.3592 H       2  VAL2        0.0318
     72 HG11      -19.4258   -8.9877  -25.1451 H       2  VAL2        0.0233
     73 HG12      -18.6148   -7.6154  -24.4111 H       2  VAL2        0.0233
     74 HG13      -20.2117   -7.4214  -25.1249 H       2  VAL2        0.0233
     75 HG21      -17.7061   -9.6052  -26.7236 H       2  VAL2        0.0233
     76 HG22      -17.0468   -8.4596  -27.8941 H       2  VAL2        0.0233
     77 HG23      -16.5817   -8.3752  -26.2127 H       2  VAL2        0.0233
@<TRIPOS>BOND
     1     1     2    1
     2     1    38    1
     3     1    39    1
     4     1    40    1
     5     2     3    2
     6     2     4   am
     7     4     5    1
     8     4    41    1
     9     5     6    1
    10     5     8    1
    11     5    42    1
    12     6     7    1
    13     6    43    1
    14     6    44    1
    15     7    45    1
    16     8     9    2
    17     8    10   am
    18    10    11    1
    19    10    46    1
    20    11    12    1
    21    11    35    1
    22    11    47    1
    23    12    13    2
    24    12    14   am
    25    14    15    1
    26    14    48    1
    27    15    16    1
    28    15    23    1
    29    15    49    1
    30    16    17    1
    31    16    50    1
    32    16    51    1
    33    17    22    1
    34    17    18    1
    35    17    52    1
    36    18    19    1
    37    18    53    1
    38    18    54    1
    39    19    20    1
    40    19    55    1
    41    19    56    1
    42    20    21    1
    43    20    57    1
    44    20    58    1
    45    21    22    1
    46    21    59    1
    47    21    60    1
    48    22    61    1
    49    22    62    1
    50    23    24    2
    51    23    25   am
    52    25    26    1
    53    25    63    1
    54    26    27    1
    55    26    29    1
    56    26    64    1
    57    27    28    2
    58    27    65    1
    59    29    30    1
    60    29    66    1
    61    29    67    1
    62    30    34   ar
    63    30    31   ar
    64    31    32   ar
    65    31    68    1
    66    32    33   ar
    67    32    69    1
    68    33    34   ar
    69    33    70    1
    70    35    36    1
    71    35    37    1
    72    35    71    1
    73    36    72    1
    74    36    73    1
    75    36    74    1
    76    37    75    1
    77    37    76    1
    78    37    77    1
