@<TRIPOS>MOLECULE
*****
 69 73 0 0 0
SMALL
GASTEIGER
****
Schrodinger Suite 2019-4.
@<TRIPOS>ATOM
      1 O         -21.1080   -3.3190  -22.6933 O.co2   1  HIS1       -0.8752
      2 C         -21.4116   -4.0893  -23.6729 C.2     1  HIS1       -0.0846
      3 CA        -20.6681   -4.4913  -24.7210 C.2     1  HIS1        0.1103
      4 CB        -19.2049   -4.0981  -24.9775 C.3     1  HIS1        0.0689
      5 CG        -18.1148   -5.1623  -25.0520 C.ar    1  HIS1        0.0686
      6 CD2       -16.7495   -4.9741  -25.2708 C.ar    1  HIS1        0.0248
      7 NE2       -16.1819   -6.2204  -25.2649 N.ar    1  HIS1       -0.3506
      8 CE1       -17.2246   -7.0755  -25.0339 C.ar    1  HIS1        0.0936
      9 ND1       -18.3752   -6.4564  -24.8959 N.ar    1  HIS1       -0.2404
     10 C         -21.6650   -4.6260  -27.0090 C.3     0  UNK0        0.1079
     11 C         -22.5097   -5.5345  -27.9419 C.3     0  UNK0        0.0799
     12 C         -22.0226   -5.4332  -29.4026 C.3     0  UNK0       -0.0254
     13 C         -22.4016   -4.1060  -30.0600 C.3     0  UNK0       -0.0349
     14 C         -21.8327   -3.9965  -31.4943 C.3     0  UNK0       -0.0498
     15 C         -22.2421   -2.6695  -32.1574 C.3     0  UNK0       -0.0528
     16 C         -23.7771   -2.5033  -32.1460 C.3     0  UNK0       -0.0527
     17 C         -24.3810   -2.7219  -30.7491 C.3     0  UNK0       -0.0485
     18 C         -23.9371   -4.0613  -30.1183 C.3     0  UNK0       -0.0223
     19 C         -24.5820   -4.1930  -28.7201 C.3     0  UNK0        0.0186
     20 N         -23.9924   -5.2847  -27.9006 N.am    0  UNK0       -0.2884
     21 C         -24.7429   -6.0103  -27.0035 C.2     0  UNK0        0.2471
     22 O         -24.2154   -6.9145  -26.3434 O.2     0  UNK0       -0.2700
     23 C         -26.2385   -5.7706  -26.7559 C.ar    0  UNK0        0.0375
     24 C         -26.8686   -4.5174  -26.8699 C.ar    0  UNK0       -0.0496
     25 C         -28.2111   -4.3433  -26.5520 C.ar    0  UNK0       -0.0605
     26 C         -28.9536   -5.4145  -26.0743 C.ar    0  UNK0       -0.0540
     27 C         -28.3692   -6.6731  -25.8884 C.ar    0  UNK0       -0.0172
     28 C         -29.1480   -7.7990  -25.2781 C.ar    0  UNK0       -0.0179
     29 C         -28.5007   -8.8082  -24.5484 C.ar    0  UNK0       -0.0540
     30 C         -29.2186   -9.8616  -23.9886 C.ar    0  UNK0       -0.0612
     31 C         -30.5975   -9.9213  -24.1574 C.ar    0  UNK0       -0.0617
     32 C         -31.2621   -8.9298  -24.8708 C.ar    0  UNK0       -0.0612
     33 C         -30.5434   -7.8691  -25.4130 C.ar    0  UNK0       -0.0540
     34 C         -27.0225   -6.8304  -26.2611 C.ar    0  UNK0       -0.0419
     35 N         -21.3089   -5.3675  -25.7058 N.pl3   1  HIS1       -0.4022
     36 H         -22.4149   -4.4906  -23.6898 H       1  HIS1        0.0504
     37 HB1       -18.9091   -3.3784  -24.2130 H       1  HIS1        0.0434
     38 HB2       -19.1856   -3.5150  -25.8986 H       1  HIS1        0.0434
     39 HD2       -16.1566   -4.0874  -25.4367 H       1  HIS1        0.0825
     40 HE2       -15.2067   -6.4713  -25.4271 H       1  HIS1        0.1662
     41 HE1       -17.0488   -8.1402  -24.9934 H       1  HIS1        0.1027
     42 H         -22.1796   -3.7068  -26.7244 H       0  UNK0        0.0987
     43 H         -20.6938   -4.3703  -27.4328 H       0  UNK0        0.0987
     44 H         -22.3072   -6.5741  -27.6755 H       0  UNK0        0.0561
     45 H         -22.4247   -6.2615  -29.9894 H       0  UNK0        0.0288
     46 H         -20.9441   -5.5922  -29.4570 H       0  UNK0        0.0288
     47 H         -22.0339   -3.2710  -29.4607 H       0  UNK0        0.0305
     48 H         -22.1844   -4.8332  -32.0989 H       0  UNK0        0.0268
     49 H         -20.7484   -4.1061  -31.4786 H       0  UNK0        0.0268
     50 H         -21.8660   -2.6269  -33.1817 H       0  UNK0        0.0265
     51 H         -21.7764   -1.8369  -31.6256 H       0  UNK0        0.0265
     52 H         -24.2287   -3.1979  -32.8573 H       0  UNK0        0.0265
     53 H         -24.0353   -1.5000  -32.4710 H       0  UNK0        0.0265
     54 H         -25.4698   -2.6656  -30.7878 H       0  UNK0        0.0269
     55 H         -24.0849   -1.8967  -30.0971 H       0  UNK0        0.0269
     56 H         -24.2897   -4.8812  -30.7494 H       0  UNK0        0.0319
     57 H         -25.6244   -4.4152  -28.9629 H       0  UNK0        0.0467
     58 H         -24.4678   -3.2568  -28.1717 H       0  UNK0        0.0467
     59 H         -26.3308   -3.6252  -27.1353 H       0  UNK0        0.0625
     60 H         -28.6702   -3.3690  -26.6460 H       0  UNK0        0.0618
     61 H         -29.9814   -5.2341  -25.7972 H       0  UNK0        0.0624
     62 H         -27.4324   -8.7800  -24.3940 H       0  UNK0        0.0624
     63 H         -28.7069  -10.6268  -23.4243 H       0  UNK0        0.0618
     64 H         -31.1552  -10.7406  -23.7274 H       0  UNK0        0.0618
     65 H         -32.3337   -8.9791  -24.9957 H       0  UNK0        0.0618
     66 H         -31.0853   -7.1188  -25.9664 H       0  UNK0        0.0624
     67 H         -26.5628   -7.8011  -26.1440 H       0  UNK0        0.0631
     68 H1        -22.1663   -5.7439  -25.3191 H       1  HIS1        0.3725
     69 H2        -20.7060   -6.1536  -25.9062 H       1  HIS1        0.3725
@<TRIPOS>BOND
     1     1     2    1
     2     2     3    2
     3     2    36    1
     4     3     4    1
     5     3    35    1
     6     4     5    1
     7     4    37    1
     8     4    38    1
     9     5     9   ar
    10     5     6   ar
    11     6     7   ar
    12     6    39    1
    13     7     8   ar
    14     7    40    1
    15     8     9   ar
    16     8    41    1
    17    10    11    1
    18    10    35    1
    19    10    42    1
    20    10    43    1
    21    11    20    1
    22    11    12    1
    23    11    44    1
    24    12    13    1
    25    12    45    1
    26    12    46    1
    27    13    18    1
    28    13    14    1
    29    13    47    1
    30    14    15    1
    31    14    48    1
    32    14    49    1
    33    15    16    1
    34    15    50    1
    35    15    51    1
    36    16    17    1
    37    16    52    1
    38    16    53    1
    39    17    18    1
    40    17    54    1
    41    17    55    1
    42    18    19    1
    43    18    56    1
    44    19    20    1
    45    19    57    1
    46    19    58    1
    47    20    21   am
    48    21    22    2
    49    21    23    1
    50    23    34   ar
    51    23    24   ar
    52    24    25   ar
    53    24    59    1
    54    25    26   ar
    55    25    60    1
    56    26    27   ar
    57    26    61    1
    58    27    28    1
    59    27    34   ar
    60    28    33   ar
    61    28    29   ar
    62    29    30   ar
    63    29    62    1
    64    30    31   ar
    65    30    63    1
    66    31    32   ar
    67    31    64    1
    68    32    33   ar
    69    32    65    1
    70    33    66    1
    71    34    67    1
    72    35    68    1
    73    35    69    1
