@<TRIPOS>MOLECULE
*****
 72 72 0 0 0
SMALL
GASTEIGER
****
Schrodinger Suite 2019-4.
@<TRIPOS>ATOM
      1 O         -20.6675   -6.3898  -34.1573 O.2     0  UNK0       -0.2265
      2 C         -19.4892   -6.3123  -33.8217 C.2     0  UNK0        0.4012
      3 N         -19.0048   -6.5010  -32.5455 N.am    1  LEU1       -0.2698
      4 CA        -19.8271   -6.9217  -31.4201 C.3     1  LEU1        0.1027
      5 C         -20.0218   -5.7428  -30.4674 C.2     1  LEU1        0.2341
      6 N         -21.2869   -5.3239  -30.3579 N.am    2  LEU2       -0.3025
      7 CA        -21.7916   -4.2028  -29.5833 C.3     2  LEU2        0.0996
      8 CB        -23.1515   -3.8583  -30.2301 C.3     2  LEU2       -0.0236
      9 CG        -23.9515   -2.6770  -29.6562 C.3     2  LEU2       -0.0446
     10 CD1       -25.1172   -2.3534  -30.6053 C.3     2  LEU2       -0.0626
     11 CD2       -23.0961   -1.4328  -29.3889 C.3     2  LEU2       -0.0626
     12 C         -21.9452   -4.6475  -28.1212 C.2     2  LEU2        0.2339
     13 N         -21.1942   -3.9860  -27.2298 N.am    3  UNK3       -0.3044
     14 C         -21.0000   -4.3840  -25.8393 C.3     3  UNK3        0.0784
     15 C         -22.0108   -3.6785  -24.9372 C.2     3  UNK3        0.1404
     16 O         -23.2170   -3.9117  -24.9460 O.2     3  UNK3       -0.2991
     17 C         -19.5777   -3.9597  -25.4254 C.3     3  UNK3       -0.0281
     18 C         -18.5210   -4.8904  -26.0398 C.3     3  UNK3       -0.0538
     19 C         -17.1020   -4.3655  -25.8697 C.3     3  UNK3       -0.0652
     20 O         -22.6756   -5.5928  -27.8210 O.2     2  LEU2       -0.2738
     21 O         -19.0748   -5.2377  -29.8656 O.2     1  LEU1       -0.2738
     22 CB        -19.1530   -8.1098  -30.7078 C.3     1  LEU1       -0.0235
     23 CG        -19.0143   -9.3736  -31.5886 C.3     1  LEU1       -0.0446
     24 CD1       -20.3673   -9.8970  -32.1076 C.3     1  LEU1       -0.0626
     25 CD2       -18.2694  -10.4778  -30.8268 C.3     1  LEU1       -0.0626
     26 O         -18.4650   -6.0823  -34.6580 O.3     0  UNK0       -0.4456
     27 C         -18.6958   -6.0681  -36.0619 C.3     0  UNK0        0.1191
     28 C         -18.8370   -7.4698  -36.6321 C.ar    0  UNK0       -0.0103
     29 C         -17.6957   -8.1601  -37.0845 C.ar    0  UNK0       -0.0554
     30 C         -17.8089   -9.4765  -37.5726 C.ar    0  UNK0       -0.0614
     31 C         -19.0678  -10.1066  -37.6150 C.ar    0  UNK0       -0.0617
     32 C         -20.2147   -9.4152  -37.1809 C.ar    0  UNK0       -0.0614
     33 C         -20.0990   -8.0995  -36.6954 C.ar    0  UNK0       -0.0554
     34 H         -18.0071   -6.3883  -32.4114 H       1  LEU1        0.1528
     35 HA        -20.8115   -7.2372  -31.7678 H       1  LEU1        0.0596
     36 H         -21.9880   -5.8570  -30.8558 H       2  LEU2        0.1495
     37 HA        -21.1023   -3.3614  -29.6667 H       2  LEU2        0.0594
     38 HB1       -23.7988   -4.7368  -30.2202 H       2  LEU2        0.0290
     39 HB2       -22.9647   -3.6528  -31.2861 H       2  LEU2        0.0290
     40 HG        -24.3685   -2.9955  -28.7036 H       2  LEU2        0.0296
     41 HD11      -25.7189   -1.5191  -30.2519 H       2  LEU2        0.0232
     42 HD12      -24.7558   -2.0877  -31.5985 H       2  LEU2        0.0232
     43 HD13      -25.7807   -3.2110  -30.7152 H       2  LEU2        0.0232
     44 HD21      -23.7026   -0.5433  -29.2340 H       2  LEU2        0.0232
     45 HD22      -22.5262   -1.5755  -28.4746 H       2  LEU2        0.0232
     46 HD23      -22.4130   -1.2236  -30.2123 H       2  LEU2        0.0232
     47 H         -20.6473   -3.2032  -27.5615 H       3  UNK3        0.1494
     48 H         -21.1106   -5.4634  -25.7197 H       3  UNK3        0.0574
     49 H         -21.5524   -2.9646  -24.2562 H       3  UNK3        0.1046
     50 H         -19.4649   -3.9923  -24.3398 H       3  UNK3        0.0287
     51 H         -19.3847   -2.9261  -25.7222 H       3  UNK3        0.0287
     52 H         -18.7070   -5.0353  -27.1042 H       3  UNK3        0.0263
     53 H         -18.6018   -5.8762  -25.5805 H       3  UNK3        0.0263
     54 H         -16.3743   -5.1151  -26.1772 H       3  UNK3        0.0230
     55 H         -16.9579   -3.4855  -26.4950 H       3  UNK3        0.0230
     56 H         -16.8946   -4.1136  -24.8299 H       3  UNK3        0.0230
     57 HB1       -19.7253   -8.3641  -29.8142 H       1  LEU1        0.0290
     58 HB2       -18.1645   -7.8094  -30.3552 H       1  LEU1        0.0290
     59 HG        -18.4033   -9.1250  -32.4571 H       1  LEU1        0.0296
     60 HD11      -20.2413  -10.8366  -32.6453 H       1  LEU1        0.0232
     61 HD12      -21.0646  -10.0754  -31.2888 H       1  LEU1        0.0232
     62 HD13      -20.8358   -9.2008  -32.8030 H       1  LEU1        0.0232
     63 HD21      -18.1119  -11.3544  -31.4553 H       1  LEU1        0.0232
     64 HD22      -17.2891  -10.1334  -30.4955 H       1  LEU1        0.0232
     65 HD23      -18.8258  -10.7961  -29.9445 H       1  LEU1        0.0232
     66 H         -17.8435   -5.5848  -36.5382 H       0  UNK0        0.0749
     67 H         -19.5741   -5.4685  -36.3080 H       0  UNK0        0.0749
     68 H         -16.7312   -7.6789  -37.0613 H       0  UNK0        0.0621
     69 H         -16.9301  -10.0010  -37.9186 H       0  UNK0        0.0618
     70 H         -19.1554  -11.1155  -37.9903 H       0  UNK0        0.0618
     71 H         -21.1838   -9.8907  -37.2213 H       0  UNK0        0.0618
     72 H         -20.9861   -7.5794  -36.3695 H       0  UNK0        0.0621
@<TRIPOS>BOND
     1     1     2    2
     2     2     3   am
     3     2    26    1
     4     3     4    1
     5     3    34    1
     6     4     5    1
     7     4    22    1
     8     4    35    1
     9     5     6   am
    10     5    21    2
    11     6     7    1
    12     6    36    1
    13     7     8    1
    14     7    12    1
    15     7    37    1
    16     8     9    1
    17     8    38    1
    18     8    39    1
    19     9    10    1
    20     9    11    1
    21     9    40    1
    22    10    41    1
    23    10    42    1
    24    10    43    1
    25    11    44    1
    26    11    45    1
    27    11    46    1
    28    12    13   am
    29    12    20    2
    30    13    14    1
    31    13    47    1
    32    14    15    1
    33    14    17    1
    34    14    48    1
    35    15    16    2
    36    15    49    1
    37    17    18    1
    38    17    50    1
    39    17    51    1
    40    18    19    1
    41    18    52    1
    42    18    53    1
    43    19    54    1
    44    19    55    1
    45    19    56    1
    46    22    23    1
    47    22    57    1
    48    22    58    1
    49    23    24    1
    50    23    25    1
    51    23    59    1
    52    24    60    1
    53    24    61    1
    54    24    62    1
    55    25    63    1
    56    25    64    1
    57    25    65    1
    58    26    27    1
    59    27    28    1
    60    27    66    1
    61    27    67    1
    62    28    33   ar
    63    28    29   ar
    64    29    30   ar
    65    29    68    1
    66    30    31   ar
    67    30    69    1
    68    31    32   ar
    69    31    70    1
    70    32    33   ar
    71    32    71    1
    72    33    72    1
