
                    3D
 Schrodinger Suite 2019-4.
 72 72  0  0  1  0            999 V2000
  -20.6675   -6.3898  -34.1573 O   0  0  0  0  0  0
  -19.4892   -6.3123  -33.8217 C   0  0  0  0  0  0
  -19.0048   -6.5010  -32.5455 N   0  0  0  0  0  0
  -19.8271   -6.9217  -31.4201 C   0  0  2  0  0  0
  -20.0218   -5.7428  -30.4674 C   0  0  0  0  0  0
  -21.2869   -5.3239  -30.3579 N   0  0  0  0  0  0
  -21.7916   -4.2028  -29.5833 C   0  0  1  0  0  0
  -23.1515   -3.8583  -30.2301 C   0  0  0  0  0  0
  -23.9515   -2.6770  -29.6562 C   0  0  0  0  0  0
  -25.1172   -2.3534  -30.6053 C   0  0  0  0  0  0
  -23.0961   -1.4328  -29.3889 C   0  0  0  0  0  0
  -21.9452   -4.6475  -28.1212 C   0  0  0  0  0  0
  -21.1942   -3.9860  -27.2298 N   0  0  0  0  0  0
  -21.0000   -4.3840  -25.8393 C   0  0  2  0  0  0
  -22.0108   -3.6785  -24.9372 C   0  0  0  0  0  0
  -23.2170   -3.9117  -24.9460 O   0  0  0  0  0  0
  -19.5777   -3.9597  -25.4254 C   0  0  0  0  0  0
  -18.5210   -4.8904  -26.0398 C   0  0  0  0  0  0
  -17.1020   -4.3655  -25.8697 C   0  0  0  0  0  0
  -22.6756   -5.5928  -27.8210 O   0  0  0  0  0  0
  -19.0748   -5.2377  -29.8656 O   0  0  0  0  0  0
  -19.1530   -8.1098  -30.7078 C   0  0  0  0  0  0
  -19.0143   -9.3736  -31.5886 C   0  0  0  0  0  0
  -20.3673   -9.8970  -32.1076 C   0  0  0  0  0  0
  -18.2694  -10.4778  -30.8268 C   0  0  0  0  0  0
  -18.4650   -6.0823  -34.6580 O   0  0  0  0  0  0
  -18.6958   -6.0681  -36.0619 C   0  0  0  0  0  0
  -18.8370   -7.4698  -36.6321 C   0  0  0  0  0  0
  -17.6957   -8.1601  -37.0845 C   0  0  0  0  0  0
  -17.8089   -9.4765  -37.5726 C   0  0  0  0  0  0
  -19.0678  -10.1066  -37.6150 C   0  0  0  0  0  0
  -20.2147   -9.4152  -37.1809 C   0  0  0  0  0  0
  -20.0990   -8.0995  -36.6954 C   0  0  0  0  0  0
  -18.0071   -6.3883  -32.4114 H   0  0  0  0  0  0
  -20.8115   -7.2372  -31.7678 H   0  0  0  0  0  0
  -21.9880   -5.8570  -30.8558 H   0  0  0  0  0  0
  -21.1023   -3.3614  -29.6667 H   0  0  0  0  0  0
  -23.7988   -4.7368  -30.2202 H   0  0  0  0  0  0
  -22.9647   -3.6528  -31.2861 H   0  0  0  0  0  0
  -24.3685   -2.9955  -28.7036 H   0  0  0  0  0  0
  -25.7189   -1.5191  -30.2519 H   0  0  0  0  0  0
  -24.7558   -2.0877  -31.5985 H   0  0  0  0  0  0
  -25.7807   -3.2110  -30.7152 H   0  0  0  0  0  0
  -23.7026   -0.5433  -29.2340 H   0  0  0  0  0  0
  -22.5262   -1.5755  -28.4746 H   0  0  0  0  0  0
  -22.4130   -1.2236  -30.2123 H   0  0  0  0  0  0
  -20.6473   -3.2032  -27.5615 H   0  0  0  0  0  0
  -21.1106   -5.4634  -25.7197 H   0  0  0  0  0  0
  -21.5524   -2.9646  -24.2562 H   0  0  0  0  0  0
  -19.4649   -3.9923  -24.3398 H   0  0  0  0  0  0
  -19.3847   -2.9261  -25.7222 H   0  0  0  0  0  0
  -18.7070   -5.0353  -27.1042 H   0  0  0  0  0  0
  -18.6018   -5.8762  -25.5805 H   0  0  0  0  0  0
  -16.3743   -5.1151  -26.1772 H   0  0  0  0  0  0
  -16.9579   -3.4855  -26.4950 H   0  0  0  0  0  0
  -16.8946   -4.1136  -24.8299 H   0  0  0  0  0  0
  -19.7253   -8.3641  -29.8142 H   0  0  0  0  0  0
  -18.1645   -7.8094  -30.3552 H   0  0  0  0  0  0
  -18.4033   -9.1250  -32.4571 H   0  0  0  0  0  0
  -20.2413  -10.8366  -32.6453 H   0  0  0  0  0  0
  -21.0646  -10.0754  -31.2888 H   0  0  0  0  0  0
  -20.8358   -9.2008  -32.8030 H   0  0  0  0  0  0
  -18.1119  -11.3544  -31.4553 H   0  0  0  0  0  0
  -17.2891  -10.1334  -30.4955 H   0  0  0  0  0  0
  -18.8258  -10.7961  -29.9445 H   0  0  0  0  0  0
  -17.8435   -5.5848  -36.5382 H   0  0  0  0  0  0
  -19.5741   -5.4685  -36.3080 H   0  0  0  0  0  0
  -16.7312   -7.6789  -37.0613 H   0  0  0  0  0  0
  -16.9301  -10.0010  -37.9186 H   0  0  0  0  0  0
  -19.1554  -11.1155  -37.9903 H   0  0  0  0  0  0
  -21.1838   -9.8907  -37.2213 H   0  0  0  0  0  0
  -20.9861   -7.5794  -36.3695 H   0  0  0  0  0  0
  1  2  2  0  0  0
  2  3  1  0  0  0
  2 26  1  0  0  0
  3  4  1  0  0  0
  3 34  1  0  0  0
  4  5  1  0  0  0
  4 22  1  0  0  0
  4 35  1  0  0  0
  5  6  1  0  0  0
  5 21  2  0  0  0
  6  7  1  0  0  0
  6 36  1  0  0  0
  7  8  1  0  0  0
  7 12  1  0  0  0
  7 37  1  0  0  0
  8  9  1  0  0  0
  8 38  1  0  0  0
  8 39  1  0  0  0
  9 10  1  0  0  0
  9 11  1  0  0  0
  9 40  1  0  0  0
 10 41  1  0  0  0
 10 42  1  0  0  0
 10 43  1  0  0  0
 11 44  1  0  0  0
 11 45  1  0  0  0
 11 46  1  0  0  0
 12 13  1  0  0  0
 12 20  2  0  0  0
 13 14  1  0  0  0
 13 47  1  0  0  0
 14 15  1  0  0  0
 14 17  1  0  0  0
 14 48  1  0  0  0
 15 16  2  0  0  0
 15 49  1  0  0  0
 17 18  1  0  0  0
 17 50  1  0  0  0
 17 51  1  0  0  0
 18 19  1  0  0  0
 18 52  1  0  0  0
 18 53  1  0  0  0
 19 54  1  0  0  0
 19 55  1  0  0  0
 19 56  1  0  0  0
 22 23  1  0  0  0
 22 57  1  0  0  0
 22 58  1  0  0  0
 23 24  1  0  0  0
 23 25  1  0  0  0
 23 59  1  0  0  0
 24 60  1  0  0  0
 24 61  1  0  0  0
 24 62  1  0  0  0
 25 63  1  0  0  0
 25 64  1  0  0  0
 25 65  1  0  0  0
 26 27  1  0  0  0
 27 28  1  0  0  0
 27 66  1  0  0  0
 27 67  1  0  0  0
 28 33  1  0  0  0
 28 29  2  0  0  0
 29 30  1  0  0  0
 29 68  1  0  0  0
 30 31  2  0  0  0
 30 69  1  0  0  0
 31 32  1  0  0  0
 31 70  1  0  0  0
 32 33  2  0  0  0
 32 71  1  0  0  0
 33 72  1  0  0  0
M  END
$$$$
