@<TRIPOS>MOLECULE
/home/lixiaoshuang.lxs/med/data/m_pro/PDB_BA/2vj1/2vj1_ligand.pdb
 8 8 0 0 0
SMALL
GASTEIGER

@<TRIPOS>ATOM
      1  CAE      -20.9390  -12.8770   37.2080 C.ar  1304  XP11304     0.0000
      2  CAJ      -22.0050  -12.2300   36.5750 C.ar  1304  XP11304     0.0001
      3  CAI      -22.7660  -11.2920   37.2550 C.ar  1304  XP11304     0.0033
      4  CAD      -22.4650  -10.9790   38.5790 C.ar  1304  XP11304     0.0422
      5  CAC      -23.2790   -9.9720   39.3050 C.2   1304  XP11304     0.2342
      6  OAH      -22.6980   -9.2270   40.0710 O.2   1304  XP11304    -0.2831
      7  CAA      -21.3910  -11.6130   39.2180 C.ar  1304  XP11304     0.0033
      8  CAB      -20.6240  -12.5620   38.5320 C.ar  1304  XP11304     0.0001
@<TRIPOS>BOND
     1     2     1   ar
     2     2     3   ar
     3     1     8   ar
     4     3     4   ar
     5     8     7   ar
     6     4     7   ar
     7     4     5    1
     8     5     6    2
