@<TRIPOS>MOLECULE
*****
 94 94 0 0 0
SMALL
GASTEIGER
****
Schrodinger Suite 2019-4.
@<TRIPOS>ATOM
      1 CD1       -19.8037   -9.9955  -28.7294 C.3     1  ILE1       -0.0650
      2 CG1       -20.1646   -8.6822  -29.4355 C.3     1  ILE1       -0.0512
      3 CB        -19.2320   -8.3123  -30.6146 C.3     1  ILE1       -0.0170
      4 CG2       -17.7816   -8.1214  -30.1313 C.3     1  ILE1       -0.0603
      5 CA        -19.8166   -7.1338  -31.4479 C.3     1  ILE1        0.1050
      6 N         -18.9630   -6.8183  -32.5841 N.am    1  ILE1       -0.2696
      7 C         -19.4494   -6.3923  -33.8039 C.2     0  UNK0        0.4012
      8 O         -20.6359   -6.2626  -34.0995 O.2     0  UNK0       -0.2265
      9 O         -18.4203   -6.1879  -34.6392 O.3     0  UNK0       -0.4456
     10 C         -18.6575   -6.1007  -36.0377 C.3     0  UNK0        0.1191
     11 C         -18.8260   -7.4797  -36.6480 C.ar    0  UNK0       -0.0103
     12 C         -17.6992   -8.1759  -37.1262 C.ar    0  UNK0       -0.0554
     13 C         -17.8356   -9.4848  -37.6265 C.ar    0  UNK0       -0.0614
     14 C         -19.1028  -10.0991  -37.6561 C.ar    0  UNK0       -0.0617
     15 C         -20.2348   -9.3997  -37.1955 C.ar    0  UNK0       -0.0614
     16 C         -20.0963   -8.0921  -36.6946 C.ar    0  UNK0       -0.0554
     17 C         -19.9776   -5.8628  -30.6117 C.2     1  ILE1        0.2343
     18 O         -19.0070   -5.2892  -30.1174 O.2     1  ILE1       -0.2738
     19 N         -21.2369   -5.4536  -30.4358 N.am    2  UNK2       -0.3025
     20 C         -21.6254   -4.3481  -29.5839 C.3     2  UNK2        0.0999
     21 C         -22.9888   -3.8355  -30.0505 C.3     2  UNK2       -0.0159
     22 C         -22.9436   -3.2447  -31.4654 C.3     2  UNK2        0.0471
     23 C         -24.3716   -3.1079  -31.9393 C.2     2  UNK2        0.3076
     24 O         -24.9171   -3.9821  -32.5937 O.2     2  UNK2       -0.2508
     25 O         -24.9538   -2.0231  -31.4623 O.3     2  UNK2       -0.4589
     26 C         -26.3667   -1.8961  -31.3696 C.3     2  UNK2        0.1052
     27 C         -26.9665   -2.9895  -30.4834 C.3     2  UNK2       -0.0254
     28 C         -27.1092   -1.8848  -32.7126 C.3     2  UNK2       -0.0254
     29 C         -26.4771   -0.5717  -30.6462 C.3     2  UNK2       -0.0254
     30 C         -21.7529   -4.9129  -28.1710 C.2     2  UNK2        0.2340
     31 O         -22.7876   -5.4608  -27.7844 O.2     2  UNK2       -0.2738
     32 N         -20.6709   -4.7553  -27.3968 N.am    3  ALA3       -0.3027
     33 CA        -20.6591   -4.9795  -25.9614 C.3     3  ALA3        0.0966
     34 CB        -19.2224   -4.7845  -25.4496 C.3     3  ALA3       -0.0381
     35 C         -21.6139   -3.9660  -25.3176 C.2     3  ALA3        0.2336
     36 O         -21.6898   -2.8202  -25.7555 O.2     3  ALA3       -0.2738
     37 N         -22.3682   -4.3848  -24.2976 N.am    4  LEU4       -0.3044
     38 CA        -23.1917   -3.4887  -23.4870 C.3     4  LEU4        0.0787
     39 C         -22.3081   -2.8178  -22.4516 C.2     4  LEU4        0.1404
     40 O         -21.0854   -2.9059  -22.4789 O.2     4  LEU4       -0.2991
     41 CB        -24.2676   -4.3112  -22.7621 C.3     4  LEU4       -0.0255
     42 CG        -25.4583   -4.6154  -23.6866 C.3     4  LEU4       -0.0447
     43 CD1       -26.3949   -3.4002  -23.7862 C.3     4  LEU4       -0.0626
     44 CD2       -26.2340   -5.8486  -23.2156 C.3     4  LEU4       -0.0626
     45 HD11      -20.5605  -10.2500  -27.9867 H       1  ILE1        0.0230
     46 HD12      -19.7463  -10.8222  -29.4377 H       1  ILE1        0.0230
     47 HD13      -18.8493   -9.9281  -28.2069 H       1  ILE1        0.0230
     48 HG11      -20.1792   -7.8832  -28.6930 H       1  ILE1        0.0266
     49 HG12      -21.1873   -8.7663  -29.8049 H       1  ILE1        0.0266
     50 HB        -19.2197   -9.1702  -31.2875 H       1  ILE1        0.0321
     51 HG21      -17.1136   -7.8148  -30.9330 H       1  ILE1        0.0233
     52 HG22      -17.7341   -7.3863  -29.3314 H       1  ILE1        0.0233
     53 HG23      -17.3709   -9.0498  -29.7360 H       1  ILE1        0.0233
     54 HA        -20.7948   -7.4470  -31.8181 H       1  ILE1        0.0598
     55 H         -17.9584   -6.8344  -32.4706 H       1  ILE1        0.1528
     56 H         -17.7968   -5.6165  -36.4987 H       0  UNK0        0.0749
     57 H         -19.5244   -5.4754  -36.2581 H       0  UNK0        0.0749
     58 H         -16.7273   -7.7092  -37.1059 H       0  UNK0        0.0621
     59 H         -16.9687  -10.0162  -37.9906 H       0  UNK0        0.0618
     60 H         -19.2082  -11.1028  -38.0409 H       0  UNK0        0.0618
     61 H         -21.2093   -9.8643  -37.2234 H       0  UNK0        0.0618
     62 H         -20.9670   -7.5666  -36.3353 H       0  UNK0        0.0621
     63 H         -21.9829   -6.0004  -30.8469 H       2  UNK2        0.1495
     64 H         -20.8935   -3.5383  -29.6125 H       2  UNK2        0.0595
     65 H         -23.3499   -3.0720  -29.3589 H       2  UNK2        0.0293
     66 H         -23.7198   -4.6470  -30.0142 H       2  UNK2        0.0293
     67 H         -22.4104   -3.8978  -32.1566 H       2  UNK2        0.0378
     68 H         -22.4429   -2.2759  -31.4758 H       2  UNK2        0.0378
     69 H         -27.9132   -2.6809  -30.0404 H       2  UNK2        0.0268
     70 H         -27.1493   -3.8841  -31.0663 H       2  UNK2        0.0268
     71 H         -26.2819   -3.2650  -29.6882 H       2  UNK2        0.0268
     72 H         -28.1014   -1.4700  -32.5700 H       2  UNK2        0.0268
     73 H         -26.6088   -1.2813  -33.4539 H       2  UNK2        0.0268
     74 H         -27.2357   -2.8805  -33.1349 H       2  UNK2        0.0268
     75 H         -27.5162   -0.2617  -30.5869 H       2  UNK2        0.0268
     76 H         -26.0742   -0.6858  -29.6529 H       2  UNK2        0.0268
     77 H         -25.8879    0.2151  -31.1081 H       2  UNK2        0.0268
     78 H         -19.8524   -4.3289  -27.8057 H       3  ALA3        0.1495
     79 HA        -20.9916   -5.9976  -25.7485 H       3  ALA3        0.0592
     80 HB1       -19.1710   -4.9305  -24.3704 H       3  ALA3        0.0252
     81 HB2       -18.5402   -5.5007  -25.9091 H       3  ALA3        0.0252
     82 HB3       -18.8481   -3.7825  -25.6677 H       3  ALA3        0.0252
     83 H         -22.3278   -5.3602  -24.0275 H       4  LEU4        0.1494
     84 HA        -23.6486   -2.7125  -24.1012 H       4  LEU4        0.0574
     85 H         -22.8546   -2.2465  -21.7016 H       4  LEU4        0.1046
     86 HB1       -24.6392   -3.7857  -21.8793 H       4  LEU4        0.0290
     87 HB2       -23.8302   -5.2350  -22.3808 H       4  LEU4        0.0290
     88 HG        -25.0821   -4.8488  -24.6834 H       4  LEU4        0.0296
     89 HD11      -27.2287   -3.6130  -24.4523 H       4  LEU4        0.0232
     90 HD12      -26.8101   -3.1355  -22.8130 H       4  LEU4        0.0232
     91 HD13      -25.8909   -2.5187  -24.1761 H       4  LEU4        0.0232
     92 HD21      -27.0684   -6.0735  -23.8804 H       4  LEU4        0.0232
     93 HD22      -25.5960   -6.7309  -23.1872 H       4  LEU4        0.0232
     94 HD23      -26.6374   -5.6960  -22.2154 H       4  LEU4        0.0232
@<TRIPOS>BOND
     1     1     2    1
     2     1    45    1
     3     1    46    1
     4     1    47    1
     5     2     3    1
     6     2    48    1
     7     2    49    1
     8     3     4    1
     9     3     5    1
    10     3    50    1
    11     4    51    1
    12     4    52    1
    13     4    53    1
    14     5     6    1
    15     5    17    1
    16     5    54    1
    17     6     7   am
    18     6    55    1
    19     7     8    2
    20     7     9    1
    21     9    10    1
    22    10    11    1
    23    10    56    1
    24    10    57    1
    25    11    16   ar
    26    11    12   ar
    27    12    13   ar
    28    12    58    1
    29    13    14   ar
    30    13    59    1
    31    14    15   ar
    32    14    60    1
    33    15    16   ar
    34    15    61    1
    35    16    62    1
    36    17    18    2
    37    17    19   am
    38    19    20    1
    39    19    63    1
    40    20    21    1
    41    20    30    1
    42    20    64    1
    43    21    22    1
    44    21    65    1
    45    21    66    1
    46    22    23    1
    47    22    67    1
    48    22    68    1
    49    23    24    2
    50    23    25    1
    51    25    26    1
    52    26    27    1
    53    26    28    1
    54    26    29    1
    55    27    69    1
    56    27    70    1
    57    27    71    1
    58    28    72    1
    59    28    73    1
    60    28    74    1
    61    29    75    1
    62    29    76    1
    63    29    77    1
    64    30    31    2
    65    30    32   am
    66    32    33    1
    67    32    78    1
    68    33    34    1
    69    33    35    1
    70    33    79    1
    71    34    80    1
    72    34    81    1
    73    34    82    1
    74    35    36    2
    75    35    37   am
    76    37    38    1
    77    37    83    1
    78    38    39    1
    79    38    41    1
    80    38    84    1
    81    39    40    2
    82    39    85    1
    83    41    42    1
    84    41    86    1
    85    41    87    1
    86    42    43    1
    87    42    44    1
    88    42    88    1
    89    43    89    1
    90    43    90    1
    91    43    91    1
    92    44    92    1
    93    44    93    1
    94    44    94    1
