@<TRIPOS>MOLECULE
*****
 79 79 0 0 0
SMALL
GASTEIGER
****
Schrodinger Suite 2019-4.
@<TRIPOS>ATOM
      1 C         -16.6410   -6.0531  -24.6142 C.3     1  UNL1       -0.0626
      2 C         -18.0736   -6.0615  -25.1928 C.3     1  UNL1       -0.0446
      3 C         -18.0388   -6.4369  -26.6768 C.3     1  UNL1       -0.0626
      4 C         -18.7934   -4.7194  -24.9215 C.3     1  UNL1       -0.0236
      5 C         -20.3233   -4.6804  -25.2292 C.3     1  UNL1        0.0997
      6 N         -20.5345   -4.3825  -26.6573 N.am    1  UNL1       -0.3025
      7 C         -21.5151   -4.8831  -27.4335 C.2     1  UNL1        0.2342
      8 O         -22.4021   -5.6296  -27.0224 O.2     1  UNL1       -0.2738
      9 C         -21.4728   -4.4996  -28.9332 C.3     1  UNL1        0.1017
     10 N         -21.0099   -5.6386  -29.7398 N.am    1  UNL1       -0.3022
     11 C         -19.7056   -5.8739  -29.9459 C.2     1  UNL1        0.2338
     12 O         -18.8450   -5.1491  -29.4629 O.2     1  UNL1       -0.2738
     13 C         -19.2789   -7.1071  -30.7708 C.3     1  UNL1        0.0997
     14 C         -18.1136   -7.8825  -30.1334 C.3     1  UNL1       -0.0380
     15 N         -18.8458   -6.7497  -32.1315 N.am    1  UNL1       -0.2701
     16 C         -19.6811   -6.9315  -33.2198 C.2     1  UNL1        0.4012
     17 O         -20.8450   -7.3309  -33.1852 O.2     1  UNL1       -0.2265
     18 O         -19.0316   -6.5680  -34.3467 O.3     1  UNL1       -0.4456
     19 C         -19.6447   -6.7080  -35.6326 C.3     1  UNL1        0.1191
     20 C         -19.5249   -8.1304  -36.1662 C.ar    1  UNL1       -0.0103
     21 C         -18.2751   -8.7501  -36.2800 C.ar    1  UNL1       -0.0554
     22 C         -18.1855  -10.0419  -36.7922 C.ar    1  UNL1       -0.0614
     23 C         -19.3427  -10.7095  -37.1889 C.ar    1  UNL1       -0.0617
     24 C         -20.5905  -10.0996  -37.0737 C.ar    1  UNL1       -0.0614
     25 C         -20.6792   -8.8091  -36.5617 C.ar    1  UNL1       -0.0554
     26 C         -22.8461   -3.9732  -29.4356 C.3     1  UNL1       -0.0197
     27 C         -22.7154   -3.4780  -30.8918 C.3     1  UNL1       -0.0605
     28 C         -23.4448   -2.8442  -28.5703 C.3     1  UNL1       -0.0605
     29 C         -21.0877   -3.6910  -24.3142 C.2     1  UNL1        0.2343
     30 O         -20.4961   -3.1491  -23.3802 O.2     1  UNL1       -0.2737
     31 N         -22.3903   -3.4904  -24.5881 N.am    1  UNL1       -0.2983
     32 C         -23.3794   -2.6971  -23.8297 C.3     1  UNL1        0.1106
     33 C         -22.8496   -1.8664  -22.7231 C.1     1  UNL1        0.0849
     34 N         -22.4451   -1.2102  -21.8582 N.1     1  UNL1       -0.1946
     35 C         -24.6129   -3.5198  -23.3869 C.3     1  UNL1       -0.0130
     36 C         -24.3881   -4.6062  -22.3075 C.3     1  UNL1        0.0264
     37 C         -23.6528   -5.8460  -22.8204 C.2     1  UNL1        0.2106
     38 N         -24.3585   -6.7789  -23.4556 N.am    1  UNL1       -0.3293
     39 O         -22.4450   -5.9592  -22.6596 O.2     1  UNL1       -0.2760
     40 H         -16.5176   -6.8340  -23.8632 H       1  UNL1        0.0232
     41 H         -15.8788   -6.2215  -25.3784 H       1  UNL1        0.0232
     42 H         -16.3962   -5.1063  -24.1331 H       1  UNL1        0.0232
     43 H         -18.6243   -6.8476  -24.6707 H       1  UNL1        0.0296
     44 H         -19.0231   -6.7392  -27.0344 H       1  UNL1        0.0232
     45 H         -17.6882   -5.5970  -27.2753 H       1  UNL1        0.0232
     46 H         -17.3632   -7.2742  -26.8606 H       1  UNL1        0.0232
     47 H         -18.2803   -3.8971  -25.4235 H       1  UNL1        0.0290
     48 H         -18.6327   -4.5484  -23.8579 H       1  UNL1        0.0290
     49 H         -20.7316   -5.6684  -25.0033 H       1  UNL1        0.0594
     50 H         -19.8423   -3.7809  -27.0826 H       1  UNL1        0.1495
     51 H         -20.7772   -3.6650  -29.0426 H       1  UNL1        0.0597
     52 H         -21.7126   -6.2477  -30.1327 H       1  UNL1        0.1495
     53 H         -20.1158   -7.8113  -30.7859 H       1  UNL1        0.0593
     54 H         -18.0531   -8.8980  -30.5247 H       1  UNL1        0.0252
     55 H         -17.1598   -7.3963  -30.3287 H       1  UNL1        0.0252
     56 H         -18.2242   -7.9489  -29.0535 H       1  UNL1        0.0252
     57 H         -17.9532   -6.2851  -32.2524 H       1  UNL1        0.1528
     58 H         -19.1650   -6.0315  -36.3392 H       1  UNL1        0.0749
     59 H         -20.6933   -6.4038  -35.5994 H       1  UNL1        0.0749
     60 H         -17.3727   -8.2428  -35.9737 H       1  UNL1        0.0621
     61 H         -17.2224  -10.5241  -36.8793 H       1  UNL1        0.0618
     62 H         -19.2725  -11.7127  -37.5856 H       1  UNL1        0.0618
     63 H         -21.4845  -10.6219  -37.3802 H       1  UNL1        0.0618
     64 H         -21.6466   -8.3362  -36.4791 H       1  UNL1        0.0621
     65 H         -23.5618   -4.7970  -29.4316 H       1  UNL1        0.0318
     66 H         -23.6449   -3.0502  -31.2611 H       1  UNL1        0.0233
     67 H         -21.9509   -2.7030  -30.9761 H       1  UNL1        0.0233
     68 H         -22.4431   -4.2848  -31.5714 H       1  UNL1        0.0233
     69 H         -24.3568   -2.4490  -29.0214 H       1  UNL1        0.0233
     70 H         -23.7122   -3.1856  -27.5710 H       1  UNL1        0.0233
     71 H         -22.7437   -2.0155  -28.4657 H       1  UNL1        0.0233
     72 H         -22.7598   -4.0288  -25.3617 H       1  UNL1        0.1500
     73 H         -23.7362   -1.9494  -24.5349 H       1  UNL1        0.0657
     74 H         -25.0823   -3.9706  -24.2583 H       1  UNL1        0.0298
     75 H         -25.3541   -2.8191  -22.9983 H       1  UNL1        0.0298
     76 H         -25.3526   -4.9333  -21.9173 H       1  UNL1        0.0359
     77 H         -23.8521   -4.1940  -21.4523 H       1  UNL1        0.0359
     78 H         -23.8787   -7.5942  -23.8045 H       1  UNL1        0.1449
     79 H         -25.3405   -6.6552  -23.6435 H       1  UNL1        0.1449
@<TRIPOS>BOND
     1     1     2    1
     2     1    40    1
     3     1    41    1
     4     1    42    1
     5     2     3    1
     6     2     4    1
     7     2    43    1
     8     3    44    1
     9     3    45    1
    10     3    46    1
    11     4     5    1
    12     4    47    1
    13     4    48    1
    14     5     6    1
    15     5    29    1
    16     5    49    1
    17     6     7   am
    18     6    50    1
    19     7     8    2
    20     7     9    1
    21     9    10    1
    22     9    26    1
    23     9    51    1
    24    10    11   am
    25    10    52    1
    26    11    12    2
    27    11    13    1
    28    13    14    1
    29    13    15    1
    30    13    53    1
    31    14    54    1
    32    14    55    1
    33    14    56    1
    34    15    16   am
    35    15    57    1
    36    16    17    2
    37    16    18    1
    38    18    19    1
    39    19    20    1
    40    19    58    1
    41    19    59    1
    42    20    25   ar
    43    20    21   ar
    44    21    22   ar
    45    21    60    1
    46    22    23   ar
    47    22    61    1
    48    23    24   ar
    49    23    62    1
    50    24    25   ar
    51    24    63    1
    52    25    64    1
    53    26    27    1
    54    26    28    1
    55    26    65    1
    56    27    66    1
    57    27    67    1
    58    27    68    1
    59    28    69    1
    60    28    70    1
    61    28    71    1
    62    29    30    2
    63    29    31   am
    64    31    32    1
    65    31    72    1
    66    32    33    1
    67    32    35    1
    68    32    73    1
    69    33    34    3
    70    35    36    1
    71    35    74    1
    72    35    75    1
    73    36    37    1
    74    36    76    1
    75    36    77    1
    76    37    38   am
    77    37    39    2
    78    38    78    1
    79    38    79    1
