
                    3D
 Schrodinger Suite 2019-4.
 79 79  0  0  1  0            999 V2000
  -16.6410   -6.0531  -24.6142 C   0  0  0  0  0  0
  -18.0736   -6.0615  -25.1928 C   0  0  0  0  0  0
  -18.0388   -6.4369  -26.6768 C   0  0  0  0  0  0
  -18.7934   -4.7194  -24.9215 C   0  0  0  0  0  0
  -20.3233   -4.6804  -25.2292 C   0  0  2  0  0  0
  -20.5345   -4.3825  -26.6573 N   0  0  0  0  0  0
  -21.5151   -4.8831  -27.4335 C   0  0  0  0  0  0
  -22.4021   -5.6296  -27.0224 O   0  0  0  0  0  0
  -21.4728   -4.4996  -28.9332 C   0  0  1  0  0  0
  -21.0099   -5.6386  -29.7398 N   0  0  0  0  0  0
  -19.7056   -5.8739  -29.9459 C   0  0  0  0  0  0
  -18.8450   -5.1491  -29.4629 O   0  0  0  0  0  0
  -19.2789   -7.1071  -30.7708 C   0  0  2  0  0  0
  -18.1136   -7.8825  -30.1334 C   0  0  0  0  0  0
  -18.8458   -6.7497  -32.1315 N   0  0  0  0  0  0
  -19.6811   -6.9315  -33.2198 C   0  0  0  0  0  0
  -20.8450   -7.3309  -33.1852 O   0  0  0  0  0  0
  -19.0316   -6.5680  -34.3467 O   0  0  0  0  0  0
  -19.6447   -6.7080  -35.6326 C   0  0  0  0  0  0
  -19.5249   -8.1304  -36.1662 C   0  0  0  0  0  0
  -18.2751   -8.7501  -36.2800 C   0  0  0  0  0  0
  -18.1855  -10.0419  -36.7922 C   0  0  0  0  0  0
  -19.3427  -10.7095  -37.1889 C   0  0  0  0  0  0
  -20.5905  -10.0996  -37.0737 C   0  0  0  0  0  0
  -20.6792   -8.8091  -36.5617 C   0  0  0  0  0  0
  -22.8461   -3.9732  -29.4356 C   0  0  0  0  0  0
  -22.7154   -3.4780  -30.8918 C   0  0  0  0  0  0
  -23.4448   -2.8442  -28.5703 C   0  0  0  0  0  0
  -21.0877   -3.6910  -24.3142 C   0  0  0  0  0  0
  -20.4961   -3.1491  -23.3802 O   0  0  0  0  0  0
  -22.3903   -3.4904  -24.5881 N   0  0  0  0  0  0
  -23.3794   -2.6971  -23.8297 C   0  0  2  0  0  0
  -22.8496   -1.8664  -22.7231 C   0  0  0  0  0  0
  -22.4451   -1.2102  -21.8582 N   0  0  0  0  0  0
  -24.6129   -3.5198  -23.3869 C   0  0  0  0  0  0
  -24.3881   -4.6062  -22.3075 C   0  0  0  0  0  0
  -23.6528   -5.8460  -22.8204 C   0  0  0  0  0  0
  -24.3585   -6.7789  -23.4556 N   0  0  0  0  0  0
  -22.4450   -5.9592  -22.6596 O   0  0  0  0  0  0
  -16.5176   -6.8340  -23.8632 H   0  0  0  0  0  0
  -15.8788   -6.2215  -25.3784 H   0  0  0  0  0  0
  -16.3962   -5.1063  -24.1331 H   0  0  0  0  0  0
  -18.6243   -6.8476  -24.6707 H   0  0  0  0  0  0
  -19.0231   -6.7392  -27.0344 H   0  0  0  0  0  0
  -17.6882   -5.5970  -27.2753 H   0  0  0  0  0  0
  -17.3632   -7.2742  -26.8606 H   0  0  0  0  0  0
  -18.2803   -3.8971  -25.4235 H   0  0  0  0  0  0
  -18.6327   -4.5484  -23.8579 H   0  0  0  0  0  0
  -20.7316   -5.6684  -25.0033 H   0  0  0  0  0  0
  -19.8423   -3.7809  -27.0826 H   0  0  0  0  0  0
  -20.7772   -3.6650  -29.0426 H   0  0  0  0  0  0
  -21.7126   -6.2477  -30.1327 H   0  0  0  0  0  0
  -20.1158   -7.8113  -30.7859 H   0  0  0  0  0  0
  -18.0531   -8.8980  -30.5247 H   0  0  0  0  0  0
  -17.1598   -7.3963  -30.3287 H   0  0  0  0  0  0
  -18.2242   -7.9489  -29.0535 H   0  0  0  0  0  0
  -17.9532   -6.2851  -32.2524 H   0  0  0  0  0  0
  -19.1650   -6.0315  -36.3392 H   0  0  0  0  0  0
  -20.6933   -6.4038  -35.5994 H   0  0  0  0  0  0
  -17.3727   -8.2428  -35.9737 H   0  0  0  0  0  0
  -17.2224  -10.5241  -36.8793 H   0  0  0  0  0  0
  -19.2725  -11.7127  -37.5856 H   0  0  0  0  0  0
  -21.4845  -10.6219  -37.3802 H   0  0  0  0  0  0
  -21.6466   -8.3362  -36.4791 H   0  0  0  0  0  0
  -23.5618   -4.7970  -29.4316 H   0  0  0  0  0  0
  -23.6449   -3.0502  -31.2611 H   0  0  0  0  0  0
  -21.9509   -2.7030  -30.9761 H   0  0  0  0  0  0
  -22.4431   -4.2848  -31.5714 H   0  0  0  0  0  0
  -24.3568   -2.4490  -29.0214 H   0  0  0  0  0  0
  -23.7122   -3.1856  -27.5710 H   0  0  0  0  0  0
  -22.7437   -2.0155  -28.4657 H   0  0  0  0  0  0
  -22.7598   -4.0288  -25.3617 H   0  0  0  0  0  0
  -23.7362   -1.9494  -24.5349 H   0  0  0  0  0  0
  -25.0823   -3.9706  -24.2583 H   0  0  0  0  0  0
  -25.3541   -2.8191  -22.9983 H   0  0  0  0  0  0
  -25.3526   -4.9333  -21.9173 H   0  0  0  0  0  0
  -23.8521   -4.1940  -21.4523 H   0  0  0  0  0  0
  -23.8787   -7.5942  -23.8045 H   0  0  0  0  0  0
  -25.3405   -6.6552  -23.6435 H   0  0  0  0  0  0
  1  2  1  0  0  0
  1 40  1  0  0  0
  1 41  1  0  0  0
  1 42  1  0  0  0
  2  3  1  0  0  0
  2  4  1  0  0  0
  2 43  1  0  0  0
  3 44  1  0  0  0
  3 45  1  0  0  0
  3 46  1  0  0  0
  4  5  1  0  0  0
  4 47  1  0  0  0
  4 48  1  0  0  0
  5  6  1  0  0  0
  5 29  1  0  0  0
  5 49  1  0  0  0
  6  7  1  0  0  0
  6 50  1  0  0  0
  7  8  2  0  0  0
  7  9  1  0  0  0
  9 10  1  0  0  0
  9 26  1  0  0  0
  9 51  1  0  0  0
 10 11  1  0  0  0
 10 52  1  0  0  0
 11 12  2  0  0  0
 11 13  1  0  0  0
 13 14  1  0  0  0
 13 15  1  0  0  0
 13 53  1  0  0  0
 14 54  1  0  0  0
 14 55  1  0  0  0
 14 56  1  0  0  0
 15 16  1  0  0  0
 15 57  1  0  0  0
 16 17  2  0  0  0
 16 18  1  0  0  0
 18 19  1  0  0  0
 19 20  1  0  0  0
 19 58  1  0  0  0
 19 59  1  0  0  0
 20 25  1  0  0  0
 20 21  2  0  0  0
 21 22  1  0  0  0
 21 60  1  0  0  0
 22 23  2  0  0  0
 22 61  1  0  0  0
 23 24  1  0  0  0
 23 62  1  0  0  0
 24 25  2  0  0  0
 24 63  1  0  0  0
 25 64  1  0  0  0
 26 27  1  0  0  0
 26 28  1  0  0  0
 26 65  1  0  0  0
 27 66  1  0  0  0
 27 67  1  0  0  0
 27 68  1  0  0  0
 28 69  1  0  0  0
 28 70  1  0  0  0
 28 71  1  0  0  0
 29 30  2  0  0  0
 29 31  1  0  0  0
 31 32  1  0  0  0
 31 72  1  0  0  0
 32 33  1  0  0  0
 32 35  1  0  0  0
 32 73  1  0  0  0
 33 34  3  0  0  0
 35 36  1  0  0  0
 35 74  1  0  0  0
 35 75  1  0  0  0
 36 37  1  0  0  0
 36 76  1  0  0  0
 36 77  1  0  0  0
 37 38  1  0  0  0
 37 39  2  0  0  0
 38 78  1  0  0  0
 38 79  1  0  0  0
M  END
$$$$
