
                    3D
 Schrodinger Suite 2019-4.
 90 93  0  0  1  0            999 V2000
  -18.5610    0.1607  -24.4390 C   0  0  0  0  0  0
  -19.8471   -0.3310  -24.2532 O   0  0  0  0  0  0
  -20.7715    0.1184  -25.1163 C   0  0  0  0  0  0
  -21.8371    0.9316  -24.7111 C   0  0  0  0  0  0
  -22.8519    1.2404  -25.6191 C   0  0  0  0  0  0
  -22.7686    0.8335  -26.9600 C   0  0  0  0  0  0
  -23.6999    1.2829  -27.8738 O   0  0  0  0  0  0
  -23.5951    0.8452  -29.2338 C   0  0  0  0  0  0
  -23.8718   -0.6562  -29.3803 C   0  0  0  0  0  0
  -24.1404   -1.3417  -28.4044 O   0  0  0  0  0  0
  -23.6884   -1.1877  -30.5851 N   0  0  0  0  0  0
  -23.9154   -2.5777  -30.9769 C   0  0  2  0  0  0
  -25.4261   -2.8416  -31.1994 C   0  0  0  0  0  0
  -25.5227   -4.0554  -32.1106 C   0  0  0  0  0  0
  -26.2442   -1.6689  -31.7697 C   0  0  0  0  0  0
  -23.3355   -3.6256  -29.9888 C   0  0  0  0  0  0
  -24.0291   -4.1056  -29.0870 O   0  0  0  0  0  0
  -22.0471   -3.9527  -30.1624 N   0  0  0  0  0  0
  -21.2580   -4.8534  -29.3152 C   0  0  2  0  0  0
  -21.8845   -6.2645  -29.1648 C   0  0  0  0  0  0
  -22.2538   -6.9649  -30.4848 C   0  0  0  0  0  0
  -22.8996   -8.3272  -30.1945 C   0  0  0  0  0  0
  -21.0345   -7.1277  -31.4083 C   0  0  0  0  0  0
  -20.9467   -4.1653  -27.9832 C   0  0  0  0  0  0
  -20.8023   -2.9484  -27.9591 O   0  0  0  0  0  0
  -20.8442   -4.9292  -26.8852 N   0  0  0  0  0  0
  -20.7432   -4.4534  -25.5093 C   0  0  2  0  0  0
  -21.8908   -3.4551  -25.1482 C   0  0  0  0  0  0
  -22.9619   -4.0355  -24.1964 C   0  0  1  0  0  0
  -23.7885   -2.9998  -23.4046 C   0  0  0  0  0  0
  -25.2445   -3.4508  -23.5068 C   0  0  0  0  0  0
  -25.2470   -4.3948  -24.6038 N   0  0  0  0  0  0
  -24.0315   -4.7849  -24.9740 C   0  0  0  0  0  0
  -23.7859   -5.6269  -25.8350 O   0  0  0  0  0  0
  -19.3135   -3.9593  -25.2081 C   0  0  0  0  0  0
  -19.0220   -2.7771  -25.0752 O   0  0  0  0  0  0
  -18.2237   -4.9567  -25.1327 C   0  0  0  0  0  0
  -18.3767   -6.2823  -25.0606 N   0  0  0  0  0  0
  -17.1306   -6.8887  -24.9825 C   0  0  0  0  0  0
  -16.8764   -8.2710  -24.8638 C   0  0  0  0  0  0
  -15.5594   -8.7593  -24.7801 C   0  0  0  0  0  0
  -14.4721   -7.8707  -24.8229 C   0  0  0  0  0  0
  -14.6968   -6.4924  -24.9648 C   0  0  0  0  0  0
  -16.0109   -6.0109  -25.0280 C   0  0  0  0  0  0
  -16.5641   -4.3580  -25.1668 S   0  0  0  0  0  0
  -21.7491   -0.0736  -27.2853 C   0  0  0  0  0  0
  -20.7528   -0.4196  -26.3866 C   0  0  0  0  0  0
  -18.2051   -0.0057  -25.4544 H   0  0  0  0  0  0
  -18.5778    1.2149  -24.1837 H   0  0  0  0  0  0
  -17.9095   -0.3554  -23.7369 H   0  0  0  0  0  0
  -21.9164    1.3040  -23.7098 H   0  0  0  0  0  0
  -23.6926    1.7854  -25.2445 H   0  0  0  0  0  0
  -22.6156    1.1012  -29.6405 H   0  0  0  0  0  0
  -24.3363    1.3639  -29.8341 H   0  0  0  0  0  0
  -23.3922   -0.5642  -31.3195 H   0  0  0  0  0  0
  -23.3868   -2.6794  -31.9274 H   0  0  0  0  0  0
  -25.9077   -3.0819  -30.2505 H   0  0  0  0  0  0
  -26.5503   -4.2335  -32.4094 H   0  0  0  0  0  0
  -24.9385   -3.9083  -33.0106 H   0  0  0  0  0  0
  -25.1235   -4.9441  -31.6224 H   0  0  0  0  0  0
  -26.9456   -1.9741  -32.5471 H   0  0  0  0  0  0
  -26.8332   -1.1967  -30.9886 H   0  0  0  0  0  0
  -25.6118   -0.8945  -32.1826 H   0  0  0  0  0  0
  -21.5452   -3.4853  -30.9026 H   0  0  0  0  0  0
  -20.2941   -4.9644  -29.8100 H   0  0  0  0  0  0
  -22.7642   -6.2244  -28.5205 H   0  0  0  0  0  0
  -21.1720   -6.9052  -28.6431 H   0  0  0  0  0  0
  -22.9966   -6.3650  -31.0128 H   0  0  0  0  0  0
  -23.1814   -8.8369  -31.1130 H   0  0  0  0  0  0
  -22.2122   -8.9869  -29.6662 H   0  0  0  0  0  0
  -23.7990   -8.2198  -29.5890 H   0  0  0  0  0  0
  -21.2830   -7.7052  -32.2976 H   0  0  0  0  0  0
  -20.6526   -6.1668  -31.7504 H   0  0  0  0  0  0
  -20.2226   -7.6513  -30.9030 H   0  0  0  0  0  0
  -20.9445   -5.9261  -27.0076 H   0  0  0  0  0  0
  -20.8926   -5.3519  -24.9109 H   0  0  0  0  0  0
  -22.4032   -3.0797  -26.0362 H   0  0  0  0  0  0
  -21.4856   -2.5350  -24.7548 H   0  0  0  0  0  0
  -22.5126   -4.7248  -23.4808 H   0  0  0  0  0  0
  -23.6635   -1.9970  -23.8111 H   0  0  0  0  0  0
  -23.4986   -2.9668  -22.3539 H   0  0  0  0  0  0
  -25.9281   -2.6198  -23.6677 H   0  0  0  0  0  0
  -25.5592   -3.9729  -22.6026 H   0  0  0  0  0  0
  -26.0974   -4.7667  -25.0128 H   0  0  0  0  0  0
  -17.7119   -8.9531  -24.8339 H   0  0  0  0  0  0
  -15.3847   -9.8186  -24.6853 H   0  0  0  0  0  0
  -13.4614   -8.2463  -24.7682 H   0  0  0  0  0  0
  -13.8644   -5.8060  -25.0093 H   0  0  0  0  0  0
  -21.6886   -0.5426  -28.2377 H   0  0  0  0  0  0
  -19.9621   -1.0946  -26.6688 H   0  0  0  0  0  0
  1  2  1  0  0  0
  1 48  1  0  0  0
  1 49  1  0  0  0
  1 50  1  0  0  0
  2  3  1  0  0  0
  3 47  1  0  0  0
  3  4  2  0  0  0
  4  5  1  0  0  0
  4 51  1  0  0  0
  5  6  2  0  0  0
  5 52  1  0  0  0
  6  7  1  0  0  0
  6 46  1  0  0  0
  7  8  1  0  0  0
  8  9  1  0  0  0
  8 53  1  0  0  0
  8 54  1  0  0  0
  9 10  2  0  0  0
  9 11  1  0  0  0
 11 12  1  0  0  0
 11 55  1  0  0  0
 12 13  1  0  0  0
 12 16  1  0  0  0
 12 56  1  0  0  0
 13 14  1  0  0  0
 13 15  1  0  0  0
 13 57  1  0  0  0
 14 58  1  0  0  0
 14 59  1  0  0  0
 14 60  1  0  0  0
 15 61  1  0  0  0
 15 62  1  0  0  0
 15 63  1  0  0  0
 16 17  2  0  0  0
 16 18  1  0  0  0
 18 19  1  0  0  0
 18 64  1  0  0  0
 19 20  1  0  0  0
 19 24  1  0  0  0
 19 65  1  0  0  0
 20 21  1  0  0  0
 20 66  1  0  0  0
 20 67  1  0  0  0
 21 22  1  0  0  0
 21 23  1  0  0  0
 21 68  1  0  0  0
 22 69  1  0  0  0
 22 70  1  0  0  0
 22 71  1  0  0  0
 23 72  1  0  0  0
 23 73  1  0  0  0
 23 74  1  0  0  0
 24 25  2  0  0  0
 24 26  1  0  0  0
 26 27  1  0  0  0
 26 75  1  0  0  0
 27 28  1  0  0  0
 27 35  1  0  0  0
 27 76  1  0  0  0
 28 29  1  0  0  0
 28 77  1  0  0  0
 28 78  1  0  0  0
 29 33  1  0  0  0
 29 30  1  0  0  0
 29 79  1  0  0  0
 30 31  1  0  0  0
 30 80  1  0  0  0
 30 81  1  0  0  0
 31 32  1  0  0  0
 31 82  1  0  0  0
 31 83  1  0  0  0
 32 33  1  0  0  0
 32 84  1  0  0  0
 33 34  2  0  0  0
 35 36  2  0  0  0
 35 37  1  0  0  0
 37 45  1  0  0  0
 37 38  2  0  0  0
 38 39  1  0  0  0
 39 44  1  0  0  0
 39 40  2  0  0  0
 40 41  1  0  0  0
 40 85  1  0  0  0
 41 42  2  0  0  0
 41 86  1  0  0  0
 42 43  1  0  0  0
 42 87  1  0  0  0
 43 44  2  0  0  0
 43 88  1  0  0  0
 44 45  1  0  0  0
 46 47  2  0  0  0
 46 89  1  0  0  0
 47 90  1  0  0  0
M  END
$$$$
