@<TRIPOS>MOLECULE
*****
 90 93 0 0 0
SMALL
GASTEIGER
****
Schrodinger Suite 2019-4.
@<TRIPOS>ATOM
      1 C         -18.5610    0.1607  -24.4390 C.3     1  UNL1        0.0788
      2 O         -19.8471   -0.3310  -24.2532 O.3     1  UNL1       -0.4951
      3 C         -20.7715    0.1184  -25.1163 C.ar    1  UNL1        0.1203
      4 C         -21.8371    0.9316  -24.7111 C.ar    1  UNL1       -0.0165
      5 C         -22.8519    1.2404  -25.6191 C.ar    1  UNL1       -0.0165
      6 C         -22.7686    0.8335  -26.9600 C.ar    1  UNL1        0.1214
      7 O         -23.6999    1.2829  -27.8738 O.3     1  UNL1       -0.4828
      8 C         -23.5951    0.8452  -29.2338 C.3     1  UNL1        0.1652
      9 C         -23.8718   -0.6562  -29.3803 C.2     1  UNL1        0.2513
     10 O         -24.1404   -1.3417  -28.4044 O.2     1  UNL1       -0.2721
     11 N         -23.6884   -1.1877  -30.5851 N.am    1  UNL1       -0.3010
     12 C         -23.9154   -2.5777  -30.9769 C.3     1  UNL1        0.1018
     13 C         -25.4261   -2.8416  -31.1994 C.3     1  UNL1       -0.0197
     14 C         -25.5227   -4.0554  -32.1106 C.3     1  UNL1       -0.0605
     15 C         -26.2442   -1.6689  -31.7697 C.3     1  UNL1       -0.0605
     16 C         -23.3355   -3.6256  -29.9888 C.2     1  UNL1        0.2342
     17 O         -24.0291   -4.1056  -29.0870 O.2     1  UNL1       -0.2738
     18 N         -22.0471   -3.9527  -30.1624 N.am    1  UNL1       -0.3025
     19 C         -21.2580   -4.8534  -29.3152 C.3     1  UNL1        0.0996
     20 C         -21.8845   -6.2645  -29.1648 C.3     1  UNL1       -0.0236
     21 C         -22.2538   -6.9649  -30.4848 C.3     1  UNL1       -0.0446
     22 C         -22.8996   -8.3272  -30.1945 C.3     1  UNL1       -0.0626
     23 C         -21.0345   -7.1277  -31.4083 C.3     1  UNL1       -0.0626
     24 C         -20.9467   -4.1653  -27.9832 C.2     1  UNL1        0.2339
     25 O         -20.8023   -2.9484  -27.9591 O.2     1  UNL1       -0.2738
     26 N         -20.8442   -4.9292  -26.8852 N.am    1  UNL1       -0.3037
     27 C         -20.7432   -4.4534  -25.5093 C.3     1  UNL1        0.0888
     28 C         -21.8908   -3.4551  -25.1482 C.3     1  UNL1       -0.0160
     29 C         -22.9619   -4.0355  -24.1964 C.3     1  UNL1        0.0390
     30 C         -23.7885   -2.9998  -23.4046 C.3     1  UNL1       -0.0262
     31 C         -25.2445   -3.4508  -23.5068 C.3     1  UNL1        0.0123
     32 N         -25.2470   -4.3948  -24.6038 N.am    1  UNL1       -0.3151
     33 C         -24.0315   -4.7849  -24.9740 C.2     1  UNL1        0.2162
     34 O         -23.7859   -5.6269  -25.8350 O.2     1  UNL1       -0.2755
     35 C         -19.3135   -3.9593  -25.2081 C.2     1  UNL1        0.2079
     36 O         -19.0220   -2.7771  -25.0752 O.2     1  UNL1       -0.2879
     37 C         -18.2237   -4.9567  -25.1327 C.ar    1  UNL1        0.1465
     38 N         -18.3767   -6.2823  -25.0606 N.ar    1  UNL1       -0.2360
     39 C         -17.1306   -6.8887  -24.9825 C.ar    1  UNL1        0.0790
     40 C         -16.8764   -8.2710  -24.8638 C.ar    1  UNL1       -0.0352
     41 C         -15.5594   -8.7593  -24.7801 C.ar    1  UNL1       -0.0597
     42 C         -14.4721   -7.8707  -24.8229 C.ar    1  UNL1       -0.0606
     43 C         -14.6968   -6.4924  -24.9648 C.ar    1  UNL1       -0.0459
     44 C         -16.0109   -6.0109  -25.0280 C.ar    1  UNL1        0.0396
     45 S         -16.5641   -4.3580  -25.1668 S.2     1  UNL1       -0.0643
     46 C         -21.7491   -0.0736  -27.2853 C.ar    1  UNL1       -0.0165
     47 C         -20.7528   -0.4196  -26.3866 C.ar    1  UNL1       -0.0165
     48 H         -18.2051   -0.0057  -25.4544 H       1  UNL1        0.0660
     49 H         -18.5778    1.2149  -24.1837 H       1  UNL1        0.0660
     50 H         -17.9095   -0.3554  -23.7369 H       1  UNL1        0.0660
     51 H         -21.9164    1.3040  -23.7098 H       1  UNL1        0.0655
     52 H         -23.6926    1.7854  -25.2445 H       1  UNL1        0.0655
     53 H         -22.6156    1.1012  -29.6405 H       1  UNL1        0.0795
     54 H         -24.3363    1.3639  -29.8341 H       1  UNL1        0.0795
     55 H         -23.3922   -0.5642  -31.3195 H       1  UNL1        0.1496
     56 H         -23.3868   -2.6794  -31.9274 H       1  UNL1        0.0597
     57 H         -25.9077   -3.0819  -30.2505 H       1  UNL1        0.0318
     58 H         -26.5503   -4.2335  -32.4094 H       1  UNL1        0.0233
     59 H         -24.9385   -3.9083  -33.0106 H       1  UNL1        0.0233
     60 H         -25.1235   -4.9441  -31.6224 H       1  UNL1        0.0233
     61 H         -26.9456   -1.9741  -32.5471 H       1  UNL1        0.0233
     62 H         -26.8332   -1.1967  -30.9886 H       1  UNL1        0.0233
     63 H         -25.6118   -0.8945  -32.1826 H       1  UNL1        0.0233
     64 H         -21.5452   -3.4853  -30.9026 H       1  UNL1        0.1495
     65 H         -20.2941   -4.9644  -29.8100 H       1  UNL1        0.0594
     66 H         -22.7642   -6.2244  -28.5205 H       1  UNL1        0.0290
     67 H         -21.1720   -6.9052  -28.6431 H       1  UNL1        0.0290
     68 H         -22.9966   -6.3650  -31.0128 H       1  UNL1        0.0296
     69 H         -23.1814   -8.8369  -31.1130 H       1  UNL1        0.0232
     70 H         -22.2122   -8.9869  -29.6662 H       1  UNL1        0.0232
     71 H         -23.7990   -8.2198  -29.5890 H       1  UNL1        0.0232
     72 H         -21.2830   -7.7052  -32.2976 H       1  UNL1        0.0232
     73 H         -20.6526   -6.1668  -31.7504 H       1  UNL1        0.0232
     74 H         -20.2226   -7.6513  -30.9030 H       1  UNL1        0.0232
     75 H         -20.9445   -5.9261  -27.0076 H       1  UNL1        0.1495
     76 H         -20.8926   -5.3519  -24.9109 H       1  UNL1        0.0582
     77 H         -22.4032   -3.0797  -26.0362 H       1  UNL1        0.0295
     78 H         -21.4856   -2.5350  -24.7548 H       1  UNL1        0.0295
     79 H         -22.5126   -4.7248  -23.4808 H       1  UNL1        0.0395
     80 H         -23.6635   -1.9970  -23.8111 H       1  UNL1        0.0288
     81 H         -23.4986   -2.9668  -22.3539 H       1  UNL1        0.0288
     82 H         -25.9281   -2.6198  -23.6677 H       1  UNL1        0.0462
     83 H         -25.5592   -3.9729  -22.6026 H       1  UNL1        0.0462
     84 H         -26.0974   -4.7667  -25.0128 H       1  UNL1        0.1487
     85 H         -17.7119   -8.9531  -24.8339 H       1  UNL1        0.0639
     86 H         -15.3847   -9.8186  -24.6853 H       1  UNL1        0.0618
     87 H         -13.4614   -8.2463  -24.7682 H       1  UNL1        0.0618
     88 H         -13.8644   -5.8060  -25.0093 H       1  UNL1        0.0629
     89 H         -21.6886   -0.5426  -28.2377 H       1  UNL1        0.0655
     90 H         -19.9621   -1.0946  -26.6688 H       1  UNL1        0.0655
@<TRIPOS>BOND
     1     1     2    1
     2     1    48    1
     3     1    49    1
     4     1    50    1
     5     2     3    1
     6     3    47   ar
     7     3     4   ar
     8     4     5   ar
     9     4    51    1
    10     5     6   ar
    11     5    52    1
    12     6     7    1
    13     6    46   ar
    14     7     8    1
    15     8     9    1
    16     8    53    1
    17     8    54    1
    18     9    10    2
    19     9    11   am
    20    11    12    1
    21    11    55    1
    22    12    13    1
    23    12    16    1
    24    12    56    1
    25    13    14    1
    26    13    15    1
    27    13    57    1
    28    14    58    1
    29    14    59    1
    30    14    60    1
    31    15    61    1
    32    15    62    1
    33    15    63    1
    34    16    17    2
    35    16    18   am
    36    18    19    1
    37    18    64    1
    38    19    20    1
    39    19    24    1
    40    19    65    1
    41    20    21    1
    42    20    66    1
    43    20    67    1
    44    21    22    1
    45    21    23    1
    46    21    68    1
    47    22    69    1
    48    22    70    1
    49    22    71    1
    50    23    72    1
    51    23    73    1
    52    23    74    1
    53    24    25    2
    54    24    26   am
    55    26    27    1
    56    26    75    1
    57    27    28    1
    58    27    35    1
    59    27    76    1
    60    28    29    1
    61    28    77    1
    62    28    78    1
    63    29    33    1
    64    29    30    1
    65    29    79    1
    66    30    31    1
    67    30    80    1
    68    30    81    1
    69    31    32    1
    70    31    82    1
    71    31    83    1
    72    32    33   am
    73    32    84    1
    74    33    34    2
    75    35    36    2
    76    35    37    1
    77    37    45   ar
    78    37    38   ar
    79    38    39   ar
    80    39    44   ar
    81    39    40   ar
    82    40    41   ar
    83    40    85    1
    84    41    42   ar
    85    41    86    1
    86    42    43   ar
    87    42    87    1
    88    43    44   ar
    89    43    88    1
    90    44    45   ar
    91    46    47   ar
    92    46    89    1
    93    47    90    1
