@<TRIPOS>MOLECULE
*****
 72 76 0 0 0
SMALL
GASTEIGER
****
Schrodinger Suite 2019-4.
@<TRIPOS>ATOM
      1 C         -23.0887   -2.1403  -30.4862 C.3     1  UNL1       -0.0626
      2 C         -23.2957   -3.6488  -30.2924 C.3     1  UNL1       -0.0446
      3 C         -24.6860   -4.0672  -30.7566 C.3     1  UNL1       -0.0626
      4 C         -23.0739   -4.0924  -28.8317 C.3     1  UNL1       -0.0236
      5 C         -21.6265   -4.5126  -28.5270 C.3     1  UNL1        0.0996
      6 N         -21.2938   -5.6913  -29.3332 N.am    1  UNL1       -0.3025
      7 C         -20.0453   -6.1480  -29.5042 C.2     1  UNL1        0.2342
      8 O         -19.0591   -5.5043  -29.1455 O.2     1  UNL1       -0.2738
      9 C         -19.8623   -7.5509  -30.1021 C.3     1  UNL1        0.1014
     10 C         -18.5211   -7.6958  -30.8344 C.3     1  UNL1        0.0010
     11 C         -18.8333   -8.7766  -31.7975 C.ar    1  UNL1       -0.0243
     12 C         -17.9332   -9.5387  -32.5585 C.ar    1  UNL1       -0.0568
     13 C         -18.4737  -10.5299  -33.4037 C.ar    1  UNL1       -0.0614
     14 C         -19.8747  -10.7301  -33.4673 C.ar    1  UNL1       -0.0600
     15 C         -20.7561   -9.9382  -32.6933 C.ar    1  UNL1       -0.0406
     16 C         -20.2090   -8.9473  -31.8600 C.ar    1  UNL1        0.0310
     17 N         -20.8968   -8.0677  -31.0125 N.pl3   1  UNL1       -0.3325
     18 C         -21.5436   -4.9230  -27.0500 C.2     1  UNL1        0.2339
     19 O         -21.9998   -6.0129  -26.6984 O.2     1  UNL1       -0.2738
     20 N         -20.9533   -4.0744  -26.1924 N.am    1  UNL1       -0.3037
     21 C         -20.6484   -4.4239  -24.7988 C.3     1  UNL1        0.0888
     22 C         -19.1255   -4.2555  -24.5817 C.3     1  UNL1       -0.0160
     23 C         -18.2979   -5.2830  -25.3894 C.3     1  UNL1        0.0390
     24 C         -18.6081   -6.7492  -25.0471 C.3     1  UNL1       -0.0262
     25 C         -17.2615   -7.4789  -25.0334 C.3     1  UNL1        0.0123
     26 N         -16.2864   -6.4174  -24.9273 N.am    1  UNL1       -0.3151
     27 C         -16.7975   -5.2096  -25.1430 C.2     1  UNL1        0.2162
     28 O         -16.1491   -4.1713  -25.1851 O.2     1  UNL1       -0.2755
     29 C         -21.4985   -3.5984  -23.8086 C.2     1  UNL1        0.2079
     30 O         -21.0186   -2.9898  -22.8524 O.2     1  UNL1       -0.2879
     31 C         -22.9691   -3.5598  -24.0423 C.ar    1  UNL1        0.1465
     32 N         -23.6800   -4.5198  -24.6434 N.ar    1  UNL1       -0.2360
     33 C         -24.9909   -4.1096  -24.8253 C.ar    1  UNL1        0.0790
     34 C         -26.0189   -4.8296  -25.4725 C.ar    1  UNL1       -0.0352
     35 C         -27.3020   -4.2754  -25.6324 C.ar    1  UNL1       -0.0597
     36 C         -27.5699   -2.9801  -25.1614 C.ar    1  UNL1       -0.0606
     37 C         -26.5653   -2.2450  -24.5045 C.ar    1  UNL1       -0.0459
     38 C         -25.2977   -2.8158  -24.3226 C.ar    1  UNL1        0.0396
     39 S         -23.8835   -2.1419  -23.5334 S.2     1  UNL1       -0.0643
     40 H         -22.0912   -1.8324  -30.1811 H       1  UNL1        0.0232
     41 H         -23.2144   -1.8614  -31.5322 H       1  UNL1        0.0232
     42 H         -23.8044   -1.5625  -29.9021 H       1  UNL1        0.0232
     43 H         -22.5883   -4.1577  -30.9470 H       1  UNL1        0.0296
     44 H         -24.7883   -5.1502  -30.7920 H       1  UNL1        0.0232
     45 H         -25.4419   -3.6917  -30.0725 H       1  UNL1        0.0232
     46 H         -24.8806   -3.6940  -31.7612 H       1  UNL1        0.0232
     47 H         -23.7314   -4.9339  -28.6042 H       1  UNL1        0.0290
     48 H         -23.3877   -3.2976  -28.1534 H       1  UNL1        0.0290
     49 H         -20.9428   -3.6898  -28.7384 H       1  UNL1        0.0594
     50 H         -22.0637   -6.2678  -29.6471 H       1  UNL1        0.1495
     51 H         -19.8565   -8.2344  -29.2518 H       1  UNL1        0.0597
     52 H         -17.6741   -7.9181  -30.1844 H       1  UNL1        0.0336
     53 H         -18.3352   -6.8155  -31.4302 H       1  UNL1        0.0336
     54 H         -16.8665   -9.3725  -32.4976 H       1  UNL1        0.0621
     55 H         -17.8146  -11.1392  -34.0049 H       1  UNL1        0.0618
     56 H         -20.2761  -11.4935  -34.1175 H       1  UNL1        0.0618
     57 H         -21.8237  -10.0903  -32.7446 H       1  UNL1        0.0636
     58 H         -21.7865   -8.3647  -30.6339 H       1  UNL1        0.1468
     59 H         -20.6150   -3.1874  -26.5388 H       1  UNL1        0.1495
     60 H         -20.8930   -5.4660  -24.5975 H       1  UNL1        0.0582
     61 H         -18.8934   -4.3665  -23.5249 H       1  UNL1        0.0295
     62 H         -18.8123   -3.2473  -24.8522 H       1  UNL1        0.0295
     63 H         -18.4406   -5.1239  -26.4587 H       1  UNL1        0.0395
     64 H         -19.3080   -7.1989  -25.7521 H       1  UNL1        0.0288
     65 H         -19.0548   -6.8185  -24.0573 H       1  UNL1        0.0288
     66 H         -17.0937   -8.0223  -25.9645 H       1  UNL1        0.0462
     67 H         -17.1795   -8.1782  -24.2010 H       1  UNL1        0.0462
     68 H         -15.2972   -6.5975  -24.8045 H       1  UNL1        0.1487
     69 H         -25.8126   -5.8160  -25.8626 H       1  UNL1        0.0639
     70 H         -28.0785   -4.8355  -26.1327 H       1  UNL1        0.0618
     71 H         -28.5546   -2.5584  -25.3000 H       1  UNL1        0.0618
     72 H         -26.7630   -1.2492  -24.1384 H       1  UNL1        0.0629
@<TRIPOS>BOND
     1     1     2    1
     2     1    40    1
     3     1    41    1
     4     1    42    1
     5     2     3    1
     6     2     4    1
     7     2    43    1
     8     3    44    1
     9     3    45    1
    10     3    46    1
    11     4     5    1
    12     4    47    1
    13     4    48    1
    14     5     6    1
    15     5    18    1
    16     5    49    1
    17     6     7   am
    18     6    50    1
    19     7     8    2
    20     7     9    1
    21     9    17    1
    22     9    10    1
    23     9    51    1
    24    10    11    1
    25    10    52    1
    26    10    53    1
    27    11    16   ar
    28    11    12   ar
    29    12    13   ar
    30    12    54    1
    31    13    14   ar
    32    13    55    1
    33    14    15   ar
    34    14    56    1
    35    15    16   ar
    36    15    57    1
    37    16    17    1
    38    17    58    1
    39    18    19    2
    40    18    20   am
    41    20    21    1
    42    20    59    1
    43    21    22    1
    44    21    29    1
    45    21    60    1
    46    22    23    1
    47    22    61    1
    48    22    62    1
    49    23    27    1
    50    23    24    1
    51    23    63    1
    52    24    25    1
    53    24    64    1
    54    24    65    1
    55    25    26    1
    56    25    66    1
    57    25    67    1
    58    26    27   am
    59    26    68    1
    60    27    28    2
    61    29    30    2
    62    29    31    1
    63    31    39   ar
    64    31    32   ar
    65    32    33   ar
    66    33    38   ar
    67    33    34   ar
    68    34    35   ar
    69    34    69    1
    70    35    36   ar
    71    35    70    1
    72    36    37   ar
    73    36    71    1
    74    37    38   ar
    75    37    72    1
    76    38    39   ar
