@<TRIPOS>MOLECULE
*****
 86 89 0 0 0
SMALL
GASTEIGER
****
Schrodinger Suite 2019-4.
@<TRIPOS>ATOM
      1 C         -20.3275   -5.8892  -32.1664 C.3     1  UNL1       -0.0626
      2 C         -19.6205   -6.6501  -31.0337 C.3     1  UNL1       -0.0446
      3 C         -19.2189   -8.0661  -31.4951 C.3     1  UNL1       -0.0626
      4 C         -20.4447   -6.6906  -29.7273 C.3     1  UNL1       -0.0236
      5 C         -20.5082   -5.3561  -28.9233 C.3     1  UNL1        0.0996
      6 N         -21.3290   -4.2960  -29.5303 N.am    1  UNL1       -0.3025
      7 C         -22.6100   -4.3854  -29.9260 C.2     1  UNL1        0.2342
      8 O         -23.2148   -5.4434  -30.1005 O.2     1  UNL1       -0.2738
      9 C         -23.3388   -3.0316  -30.1210 C.3     1  UNL1        0.1018
     10 N         -24.6108   -2.8774  -29.4059 N.am    1  UNL1       -0.3010
     11 C         -25.1465   -3.5212  -28.3520 C.2     1  UNL1        0.2513
     12 O         -24.5842   -4.4132  -27.7195 O.2     1  UNL1       -0.2721
     13 C         -26.5376   -3.0509  -27.8982 C.3     1  UNL1        0.1652
     14 O         -27.0165   -2.0537  -28.7978 O.3     1  UNL1       -0.4828
     15 C         -28.1334   -1.3108  -28.5113 C.ar    1  UNL1        0.1212
     16 C         -28.4913   -0.3397  -29.4528 C.ar    1  UNL1       -0.0199
     17 C         -29.4991    0.5784  -29.1520 C.ar    1  UNL1       -0.0583
     18 C         -30.1873    0.4810  -27.9519 C.ar    1  UNL1       -0.0615
     19 C         -29.8988   -0.5606  -27.0637 C.ar    1  UNL1       -0.0583
     20 C         -28.8658   -1.4478  -27.3283 C.ar    1  UNL1       -0.0199
     21 C         -23.6207   -2.7676  -31.6264 C.3     1  UNL1       -0.0197
     22 C         -24.6308   -3.7761  -32.2041 C.3     1  UNL1       -0.0605
     23 C         -22.3729   -2.6696  -32.5215 C.3     1  UNL1       -0.0605
     24 C         -20.9230   -5.5666  -27.4551 C.2     1  UNL1        0.2339
     25 O         -21.3862   -6.6470  -27.0899 O.2     1  UNL1       -0.2738
     26 N         -20.7187   -4.5228  -26.6299 N.am    1  UNL1       -0.3037
     27 C         -20.9385   -4.5413  -25.1741 C.3     1  UNL1        0.0888
     28 C         -22.0701   -3.5618  -24.7548 C.3     1  UNL1       -0.0160
     29 C         -22.4283   -3.4688  -23.2409 C.3     1  UNL1        0.0390
     30 C         -23.5105   -2.4368  -22.9424 C.3     1  UNL1       -0.0262
     31 C         -24.2837   -3.0347  -21.7822 C.3     1  UNL1        0.0123
     32 N         -24.0594   -4.4594  -21.9463 N.am    1  UNL1       -0.3151
     33 C         -22.9763   -4.7862  -22.6628 C.2     1  UNL1        0.2162
     34 O         -22.4781   -5.9030  -22.7571 O.2     1  UNL1       -0.2755
     35 C         -19.5560   -4.2653  -24.5763 C.2     1  UNL1        0.2079
     36 O         -19.3172   -3.2290  -23.9527 O.2     1  UNL1       -0.2879
     37 C         -18.5171   -5.2800  -24.7625 C.ar    1  UNL1        0.1465
     38 N         -18.7325   -6.5596  -24.9128 N.ar    1  UNL1       -0.2360
     39 C         -17.5803   -7.2688  -24.9993 C.ar    1  UNL1        0.0790
     40 C         -17.5067   -8.6615  -25.1346 C.ar    1  UNL1       -0.0352
     41 C         -16.2443   -9.2511  -25.2132 C.ar    1  UNL1       -0.0597
     42 C         -15.0849   -8.4820  -25.1519 C.ar    1  UNL1       -0.0606
     43 C         -15.1328   -7.0956  -25.0130 C.ar    1  UNL1       -0.0459
     44 C         -16.3945   -6.4929  -24.9343 C.ar    1  UNL1        0.0396
     45 S         -16.8301   -4.8005  -24.7526 S.2     1  UNL1       -0.0643
     46 H         -20.2928   -4.8236  -31.9519 H       1  UNL1        0.0232
     47 H         -19.8561   -6.0468  -33.1414 H       1  UNL1        0.0232
     48 H         -21.3766   -6.1748  -32.2419 H       1  UNL1        0.0232
     49 H         -18.6992   -6.1152  -30.8162 H       1  UNL1        0.0296
     50 H         -18.1432   -8.2161  -31.3826 H       1  UNL1        0.0232
     51 H         -19.7167   -8.8460  -30.9174 H       1  UNL1        0.0232
     52 H         -19.4596   -8.2459  -32.5432 H       1  UNL1        0.0232
     53 H         -19.9454   -7.4150  -29.0804 H       1  UNL1        0.0290
     54 H         -21.4309   -7.1208  -29.9001 H       1  UNL1        0.0290
     55 H         -19.4894   -4.9700  -28.8797 H       1  UNL1        0.0594
     56 H         -20.9429   -3.3668  -29.4510 H       1  UNL1        0.1495
     57 H         -22.6949   -2.2366  -29.7425 H       1  UNL1        0.0597
     58 H         -25.2013   -2.1483  -29.7818 H       1  UNL1        0.1496
     59 H         -26.4444   -2.6547  -26.8865 H       1  UNL1        0.0795
     60 H         -27.2134   -3.9067  -27.8783 H       1  UNL1        0.0795
     61 H         -27.9325   -0.2409  -30.3726 H       1  UNL1        0.0654
     62 H         -29.7239    1.3823  -29.8340 H       1  UNL1        0.0619
     63 H         -30.9460    1.2149  -27.7210 H       1  UNL1        0.0618
     64 H         -30.4347   -0.6530  -26.1315 H       1  UNL1        0.0619
     65 H         -28.6232   -2.2027  -26.5952 H       1  UNL1        0.0654
     66 H         -24.0963   -1.7867  -31.6745 H       1  UNL1        0.0318
     67 H         -25.0158   -3.4465  -33.1519 H       1  UNL1        0.0233
     68 H         -24.2014   -4.7663  -32.3513 H       1  UNL1        0.0233
     69 H         -25.4988   -3.8734  -31.5576 H       1  UNL1        0.0233
     70 H         -22.6263   -2.2519  -33.4951 H       1  UNL1        0.0233
     71 H         -21.6125   -2.0266  -32.0793 H       1  UNL1        0.0233
     72 H         -21.9351   -3.6468  -32.7092 H       1  UNL1        0.0233
     73 H         -20.4178   -3.6393  -27.0130 H       1  UNL1        0.1495
     74 H         -21.2395   -5.5414  -24.8548 H       1  UNL1        0.0582
     75 H         -22.9698   -3.8472  -25.3036 H       1  UNL1        0.0295
     76 H         -21.8264   -2.5616  -25.1185 H       1  UNL1        0.0295
     77 H         -21.5360   -3.2287  -22.6626 H       1  UNL1        0.0395
     78 H         -24.1833   -2.3241  -23.7948 H       1  UNL1        0.0288
     79 H         -23.1111   -1.4464  -22.7174 H       1  UNL1        0.0288
     80 H         -25.3460   -2.7937  -21.8272 H       1  UNL1        0.0462
     81 H         -23.8989   -2.7054  -20.8150 H       1  UNL1        0.0462
     82 H         -24.5583   -5.1435  -21.3963 H       1  UNL1        0.1487
     83 H         -18.4073   -9.2589  -25.1780 H       1  UNL1        0.0639
     84 H         -16.1558  -10.3223  -25.3300 H       1  UNL1        0.0618
     85 H         -14.1211   -8.9683  -25.2448 H       1  UNL1        0.0618
     86 H         -14.2250   -6.5111  -24.9634 H       1  UNL1        0.0629
@<TRIPOS>BOND
     1     1     2    1
     2     1    46    1
     3     1    47    1
     4     1    48    1
     5     2     3    1
     6     2     4    1
     7     2    49    1
     8     3    50    1
     9     3    51    1
    10     3    52    1
    11     4     5    1
    12     4    53    1
    13     4    54    1
    14     5     6    1
    15     5    24    1
    16     5    55    1
    17     6     7   am
    18     6    56    1
    19     7     8    2
    20     7     9    1
    21     9    10    1
    22     9    21    1
    23     9    57    1
    24    10    11   am
    25    10    58    1
    26    11    12    2
    27    11    13    1
    28    13    14    1
    29    13    59    1
    30    13    60    1
    31    14    15    1
    32    15    20   ar
    33    15    16   ar
    34    16    17   ar
    35    16    61    1
    36    17    18   ar
    37    17    62    1
    38    18    19   ar
    39    18    63    1
    40    19    20   ar
    41    19    64    1
    42    20    65    1
    43    21    22    1
    44    21    23    1
    45    21    66    1
    46    22    67    1
    47    22    68    1
    48    22    69    1
    49    23    70    1
    50    23    71    1
    51    23    72    1
    52    24    25    2
    53    24    26   am
    54    26    27    1
    55    26    73    1
    56    27    28    1
    57    27    35    1
    58    27    74    1
    59    28    29    1
    60    28    75    1
    61    28    76    1
    62    29    33    1
    63    29    30    1
    64    29    77    1
    65    30    31    1
    66    30    78    1
    67    30    79    1
    68    31    32    1
    69    31    80    1
    70    31    81    1
    71    32    33   am
    72    32    82    1
    73    33    34    2
    74    35    36    2
    75    35    37    1
    76    37    45   ar
    77    37    38   ar
    78    38    39   ar
    79    39    44   ar
    80    39    40   ar
    81    40    41   ar
    82    40    83    1
    83    41    42   ar
    84    41    84    1
    85    42    43   ar
    86    42    85    1
    87    43    44   ar
    88    43    86    1
    89    44    45   ar
