@<TRIPOS>MOLECULE
*****
 75 78 0 0 0
SMALL
GASTEIGER
****
Schrodinger Suite 2019-4.
@<TRIPOS>ATOM
      1 C         -20.7322   -7.3218  -30.5752 C.3     1  UNL1        0.0788
      2 O         -20.6765   -6.0674  -29.9043 O.3     1  UNL1       -0.4951
      3 C         -19.8648   -5.9325  -28.7940 C.ar    1  UNL1        0.1202
      4 C         -19.9069   -4.7070  -28.1312 C.ar    1  UNL1       -0.0182
      5 C         -19.0752   -4.4618  -27.0403 C.ar    1  UNL1       -0.0374
      6 C         -18.2007   -5.4527  -26.5877 C.ar    1  UNL1        0.0277
      7 N         -17.3434   -5.2423  -25.4899 N.pl3   1  UNL1       -0.3354
      8 C         -17.5972   -4.2711  -24.4380 C.3     1  UNL1        0.0858
      9 C         -19.0215   -4.4168  -23.8618 C.2     1  UNL1        0.2307
     10 O         -19.5630   -5.5172  -23.8350 O.2     1  UNL1       -0.2741
     11 N         -19.6839   -3.3090  -23.4953 N.am    1  UNL1       -0.3027
     12 C         -21.1470   -3.2776  -23.3372 C.3     1  UNL1        0.0996
     13 C         -21.6121   -1.8623  -22.9254 C.3     1  UNL1       -0.0236
     14 C         -23.0828   -1.4924  -23.2324 C.3     1  UNL1       -0.0446
     15 C         -23.2454    0.0323  -23.2180 C.3     1  UNL1       -0.0626
     16 C         -24.0544   -2.2537  -22.3077 C.3     1  UNL1       -0.0626
     17 C         -21.8499   -3.7819  -24.6132 C.2     1  UNL1        0.2339
     18 O         -21.6298   -3.2144  -25.6824 O.2     1  UNL1       -0.2738
     19 N         -22.6897   -4.8215  -24.4499 N.am    1  UNL1       -0.3037
     20 C         -23.4871   -5.4982  -25.4871 C.3     1  UNL1        0.0888
     21 C         -24.2731   -6.6872  -24.8486 C.3     1  UNL1       -0.0160
     22 C         -24.8407   -7.8132  -25.7672 C.3     1  UNL1        0.0390
     23 C         -23.8683   -8.4953  -26.7266 C.3     1  UNL1       -0.0262
     24 C         -24.7115   -8.8209  -27.9482 C.3     1  UNL1        0.0123
     25 N         -25.8411   -7.9070  -27.8327 N.am    1  UNL1       -0.3151
     26 C         -26.0378   -7.3726  -26.6177 C.2     1  UNL1        0.2162
     27 O         -26.9983   -6.7070  -26.2420 O.2     1  UNL1       -0.2755
     28 C         -24.4227   -4.4610  -26.1398 C.2     1  UNL1        0.2079
     29 O         -25.1308   -3.7467  -25.4225 O.2     1  UNL1       -0.2879
     30 C         -24.4332   -4.2724  -27.5970 C.ar    1  UNL1        0.1465
     31 N         -25.1109   -3.3505  -28.2343 N.ar    1  UNL1       -0.2360
     32 C         -24.8426   -3.3473  -29.5671 C.ar    1  UNL1        0.0790
     33 C         -25.4006   -2.4633  -30.5034 C.ar    1  UNL1       -0.0352
     34 C         -25.0040   -2.5740  -31.8350 C.ar    1  UNL1       -0.0597
     35 C         -24.0662   -3.5249  -32.2343 C.ar    1  UNL1       -0.0606
     36 C         -23.5112   -4.4271  -31.3303 C.ar    1  UNL1       -0.0459
     37 C         -23.9161   -4.3318  -29.9950 C.ar    1  UNL1        0.0396
     38 S         -23.4444   -5.2996  -28.6200 S.2     1  UNL1       -0.0643
     39 C         -18.2009   -6.6995  -27.2091 C.ar    1  UNL1       -0.0374
     40 C         -19.0134   -6.9372  -28.3138 C.ar    1  UNL1       -0.0182
     41 H         -21.4388   -7.2573  -31.4019 H       1  UNL1        0.0660
     42 H         -19.7618   -7.5971  -30.9894 H       1  UNL1        0.0660
     43 H         -21.0778   -8.1154  -29.9104 H       1  UNL1        0.0660
     44 H         -20.5748   -3.9290  -28.4763 H       1  UNL1        0.0655
     45 H         -19.1108   -3.4899  -26.5726 H       1  UNL1        0.0637
     46 H         -16.3874   -5.5434  -25.6297 H       1  UNL1        0.1466
     47 H         -17.4020   -3.2447  -24.7520 H       1  UNL1        0.0557
     48 H         -16.9319   -4.4457  -23.5922 H       1  UNL1        0.0557
     49 H         -19.2130   -2.4270  -23.6262 H       1  UNL1        0.1495
     50 H         -21.4122   -3.9507  -22.5243 H       1  UNL1        0.0594
     51 H         -21.0010   -1.1353  -23.4446 H       1  UNL1        0.0290
     52 H         -21.4017   -1.6985  -21.8674 H       1  UNL1        0.0290
     53 H         -23.3600   -1.7549  -24.2526 H       1  UNL1        0.0296
     54 H         -24.2624    0.3369  -23.0350 H       1  UNL1        0.0232
     55 H         -22.6013    0.4973  -22.4751 H       1  UNL1        0.0232
     56 H         -23.0004    0.4530  -24.1925 H       1  UNL1        0.0232
     57 H         -25.0806   -1.9071  -22.4203 H       1  UNL1        0.0232
     58 H         -24.0649   -3.3175  -22.5399 H       1  UNL1        0.0232
     59 H         -23.7756   -2.1544  -21.2587 H       1  UNL1        0.0232
     60 H         -22.7245   -5.2581  -23.5421 H       1  UNL1        0.1495
     61 H         -22.7427   -5.9046  -26.1669 H       1  UNL1        0.0582
     62 H         -25.0685   -6.3016  -24.2058 H       1  UNL1        0.0295
     63 H         -23.5974   -7.1924  -24.1555 H       1  UNL1        0.0295
     64 H         -25.2569   -8.5768  -25.1091 H       1  UNL1        0.0395
     65 H         -23.4011   -9.3840  -26.2994 H       1  UNL1        0.0288
     66 H         -23.0541   -7.8361  -27.0246 H       1  UNL1        0.0288
     67 H         -25.0569   -9.8566  -27.9510 H       1  UNL1        0.0462
     68 H         -24.1555   -8.6458  -28.8729 H       1  UNL1        0.0462
     69 H         -26.5168   -7.7885  -28.5742 H       1  UNL1        0.1487
     70 H         -26.1174   -1.7151  -30.2063 H       1  UNL1        0.0639
     71 H         -25.4255   -1.9070  -32.5726 H       1  UNL1        0.0618
     72 H         -23.7647   -3.5690  -33.2692 H       1  UNL1        0.0618
     73 H         -22.7893   -5.1678  -31.6442 H       1  UNL1        0.0629
     74 H         -17.5516   -7.4838  -26.8487 H       1  UNL1        0.0637
     75 H         -18.9725   -7.9067  -28.7865 H       1  UNL1        0.0655
@<TRIPOS>BOND
     1     1     2    1
     2     1    41    1
     3     1    42    1
     4     1    43    1
     5     2     3    1
     6     3    40   ar
     7     3     4   ar
     8     4     5   ar
     9     4    44    1
    10     5     6   ar
    11     5    45    1
    12     6     7    1
    13     6    39   ar
    14     7     8    1
    15     7    46    1
    16     8     9    1
    17     8    47    1
    18     8    48    1
    19     9    10    2
    20     9    11   am
    21    11    12    1
    22    11    49    1
    23    12    13    1
    24    12    17    1
    25    12    50    1
    26    13    14    1
    27    13    51    1
    28    13    52    1
    29    14    15    1
    30    14    16    1
    31    14    53    1
    32    15    54    1
    33    15    55    1
    34    15    56    1
    35    16    57    1
    36    16    58    1
    37    16    59    1
    38    17    18    2
    39    17    19   am
    40    19    20    1
    41    19    60    1
    42    20    21    1
    43    20    28    1
    44    20    61    1
    45    21    22    1
    46    21    62    1
    47    21    63    1
    48    22    26    1
    49    22    23    1
    50    22    64    1
    51    23    24    1
    52    23    65    1
    53    23    66    1
    54    24    25    1
    55    24    67    1
    56    24    68    1
    57    25    26   am
    58    25    69    1
    59    26    27    2
    60    28    29    2
    61    28    30    1
    62    30    38   ar
    63    30    31   ar
    64    31    32   ar
    65    32    37   ar
    66    32    33   ar
    67    33    34   ar
    68    33    70    1
    69    34    35   ar
    70    34    71    1
    71    35    36   ar
    72    35    72    1
    73    36    37   ar
    74    36    73    1
    75    37    38   ar
    76    39    40   ar
    77    39    74    1
    78    40    75    1
