
                    3D
 Schrodinger Suite 2019-4.
 59 61  0  0  1  0            999 V2000
  -21.1870   -3.4163  -22.7289 O   0  0  0  0  0  0
  -21.5365   -3.8174  -23.8367 C   0  0  0  0  0  0
  -20.6523   -4.6609  -24.7281 C   0  0  2  0  0  0
  -19.1434   -4.5782  -24.4022 C   0  0  0  0  0  0
  -18.3021   -5.5971  -25.2223 C   0  0  2  0  0  0
  -18.4519   -7.0482  -24.7824 C   0  0  0  0  0  0
  -17.0794   -7.6524  -24.9976 C   0  0  0  0  0  0
  -16.2031   -6.4932  -24.9342 N   0  0  0  0  0  0
  -16.7982   -5.3075  -25.1472 C   0  0  0  0  0  0
  -16.2556   -4.2200  -25.3216 O   0  0  0  0  0  0
  -20.9526   -4.2091  -26.0876 N   0  0  0  0  0  0
  -21.3247   -5.0292  -27.0798 C   0  0  0  0  0  0
  -21.5489   -6.2254  -26.9208 O   0  0  0  0  0  0
  -21.5656   -4.3929  -28.4587 C   0  0  2  0  0  0
  -23.0813   -4.1172  -28.5755 C   0  0  0  0  0  0
  -23.5040   -3.3669  -29.8113 C   0  0  0  0  0  0
  -23.4033   -1.9627  -29.8386 C   0  0  0  0  0  0
  -23.7984   -1.2689  -30.9698 C   0  0  0  0  0  0
  -24.2536   -1.9664  -32.0784 C   0  0  0  0  0  0
  -24.2603   -3.3528  -32.1036 C   0  0  0  0  0  0
  -23.8791   -4.0653  -30.9775 C   0  0  0  0  0  0
  -21.1395   -5.2288  -29.5959 N   0  0  0  0  0  0
  -19.9490   -5.8231  -29.7728 C   0  0  0  0  0  0
  -19.0020   -5.6938  -28.9944 O   0  0  0  0  0  0
  -19.8905   -6.6321  -30.9686 C   0  0  0  0  0  0
  -18.8242   -7.4110  -31.2628 C   0  0  0  0  0  0
  -18.6242   -8.2842  -32.4468 C   0  0  0  0  0  0
  -17.3402   -8.8131  -32.6352 C   0  0  0  0  0  0
  -17.0574   -9.6513  -33.7121 C   0  0  0  0  0  0
  -18.0595   -9.9735  -34.6236 C   0  0  0  0  0  0
  -17.7121  -10.9984  -35.9669 Cl  0  0  0  0  0  0
  -19.3415   -9.4564  -34.4546 C   0  0  0  0  0  0
  -19.6283   -8.6165  -33.3774 C   0  0  0  0  0  0
  -20.8912   -8.1471  -33.2639 F   0  0  0  0  0  0
  -22.5350   -3.6147  -24.2260 H   0  0  0  0  0  0
  -20.9728   -5.6946  -24.5774 H   0  0  0  0  0  0
  -19.0021   -4.7494  -23.3354 H   0  0  0  0  0  0
  -18.7974   -3.5598  -24.5941 H   0  0  0  0  0  0
  -18.5440   -5.5065  -26.2830 H   0  0  0  0  0  0
  -19.2359   -7.5856  -25.3168 H   0  0  0  0  0  0
  -18.6946   -7.0955  -23.7212 H   0  0  0  0  0  0
  -16.9823   -8.1399  -25.9709 H   0  0  0  0  0  0
  -16.8245   -8.3790  -24.2242 H   0  0  0  0  0  0
  -15.1937   -6.6091  -24.9628 H   0  0  0  0  0  0
  -20.7553   -3.2377  -26.2931 H   0  0  0  0  0  0
  -21.0292   -3.4417  -28.5141 H   0  0  0  0  0  0
  -23.4339   -3.5384  -27.7192 H   0  0  0  0  0  0
  -23.6413   -5.0545  -28.5523 H   0  0  0  0  0  0
  -23.0559   -1.4199  -28.9692 H   0  0  0  0  0  0
  -23.7754   -0.1887  -30.9760 H   0  0  0  0  0  0
  -24.6174   -1.4158  -32.9215 H   0  0  0  0  0  0
  -24.6014   -3.8731  -32.9833 H   0  0  0  0  0  0
  -23.9168   -5.1463  -30.9889 H   0  0  0  0  0  0
  -21.8313   -5.3355  -30.3205 H   0  0  0  0  0  0
  -20.7525   -6.5746  -31.6156 H   0  0  0  0  0  0
  -17.9937   -7.4157  -30.5673 H   0  0  0  0  0  0
  -16.5431   -8.5758  -31.9427 H   0  0  0  0  0  0
  -16.0595  -10.0483  -33.8389 H   0  0  0  0  0  0
  -20.1179   -9.7034  -35.1638 H   0  0  0  0  0  0
  1  2  2  0  0  0
  2  3  1  0  0  0
  2 35  1  0  0  0
  3  4  1  0  0  0
  3 11  1  0  0  0
  3 36  1  0  0  0
  4  5  1  0  0  0
  4 37  1  0  0  0
  4 38  1  0  0  0
  5  9  1  0  0  0
  5  6  1  0  0  0
  5 39  1  0  0  0
  6  7  1  0  0  0
  6 40  1  0  0  0
  6 41  1  0  0  0
  7  8  1  0  0  0
  7 42  1  0  0  0
  7 43  1  0  0  0
  8  9  1  0  0  0
  8 44  1  0  0  0
  9 10  2  0  0  0
 11 12  1  0  0  0
 11 45  1  0  0  0
 12 13  2  0  0  0
 12 14  1  0  0  0
 14 15  1  0  0  0
 14 22  1  0  0  0
 14 46  1  0  0  0
 15 16  1  0  0  0
 15 47  1  0  0  0
 15 48  1  0  0  0
 16 21  1  0  0  0
 16 17  2  0  0  0
 17 18  1  0  0  0
 17 49  1  0  0  0
 18 19  2  0  0  0
 18 50  1  0  0  0
 19 20  1  0  0  0
 19 51  1  0  0  0
 20 21  2  0  0  0
 20 52  1  0  0  0
 21 53  1  0  0  0
 22 23  1  0  0  0
 22 54  1  0  0  0
 23 24  2  0  0  0
 23 25  1  0  0  0
 25 26  2  0  0  0
 25 55  1  0  0  0
 26 27  1  0  0  0
 26 56  1  0  0  0
 27 33  1  0  0  0
 27 28  2  0  0  0
 28 29  1  0  0  0
 28 57  1  0  0  0
 29 30  2  0  0  0
 29 58  1  0  0  0
 30 31  1  0  0  0
 30 32  1  0  0  0
 32 33  2  0  0  0
 32 59  1  0  0  0
 33 34  1  0  0  0
M  END
$$$$
