@<TRIPOS>MOLECULE
*****
 59 61 0 0 0
SMALL
GASTEIGER
****
Schrodinger Suite 2019-4.
@<TRIPOS>ATOM
      1 O         -21.1870   -3.4163  -22.7289 O.2     1  UNK1       -0.2991
      2 C         -21.5365   -3.8174  -23.8367 C.2     1  UNK1        0.1404
      3 C         -20.6523   -4.6609  -24.7281 C.3     1  UNK1        0.0791
      4 C         -19.1434   -4.5782  -24.4022 C.3     1  UNK1       -0.0167
      5 C         -18.3021   -5.5971  -25.2223 C.3     1  UNK1        0.0390
      6 C         -18.4519   -7.0482  -24.7824 C.3     1  UNK1       -0.0262
      7 C         -17.0794   -7.6524  -24.9976 C.3     1  UNK1        0.0123
      8 N         -16.2031   -6.4932  -24.9342 N.am    1  UNK1       -0.3151
      9 C         -16.7982   -5.3075  -25.1472 C.2     1  UNK1        0.2162
     10 O         -16.2556   -4.2200  -25.3216 O.2     1  UNK1       -0.2755
     11 N         -20.9526   -4.2091  -26.0876 N.am    1  UNK1       -0.3044
     12 C         -21.3247   -5.0292  -27.0798 C.2     1  UNK1        0.2342
     13 O         -21.5489   -6.2254  -26.9208 O.2     1  UNK1       -0.2738
     14 C         -21.5656   -4.3929  -28.4587 C.3     1  UNK1        0.1036
     15 C         -23.0813   -4.1172  -28.5755 C.3     1  UNK1       -0.0006
     16 C         -23.5040   -3.3669  -29.8113 C.ar    1  UNK1       -0.0451
     17 C         -23.4033   -1.9627  -29.8386 C.ar    1  UNK1       -0.0585
     18 C         -23.7984   -1.2689  -30.9698 C.ar    1  UNK1       -0.0615
     19 C         -24.2536   -1.9664  -32.0784 C.ar    1  UNK1       -0.0617
     20 C         -24.2603   -3.3528  -32.1036 C.ar    1  UNK1       -0.0615
     21 C         -23.8791   -4.0653  -30.9775 C.ar    1  UNK1       -0.0585
     22 N         -21.1395   -5.2288  -29.5959 N.am    1  UNK1       -0.3002
     23 C         -19.9490   -5.8231  -29.7728 C.2     0  UNK0        0.2375
     24 O         -19.0020   -5.6938  -28.9944 O.2     0  UNK0       -0.2708
     25 C         -19.8905   -6.6321  -30.9686 C.2     0  UNK0        0.0008
     26 C         -18.8242   -7.4110  -31.2628 C.2     0  UNK0       -0.0469
     27 C         -18.6242   -8.2842  -32.4468 C.ar    0  UNK0        0.0104
     28 C         -17.3402   -8.8131  -32.6352 C.ar    0  UNK0       -0.0505
     29 C         -17.0574   -9.6513  -33.7121 C.ar    0  UNK0       -0.0427
     30 C         -18.0595   -9.9735  -34.6236 C.ar    0  UNK0        0.0437
     31 CL        -17.7121  -10.9984  -35.9669 Cl      0  UNK0       -0.0835
     32 C         -19.3415   -9.4564  -34.4546 C.ar    0  UNK0       -0.0075
     33 C         -19.6283   -8.6165  -33.3774 C.ar    0  UNK0        0.1319
     34 F         -20.8912   -8.1471  -33.2639 F       0  UNK0       -0.2048
     35 H         -22.5350   -3.6147  -24.2260 H       1  UNK1        0.1046
     36 H         -20.9728   -5.6946  -24.5774 H       1  UNK1        0.0574
     37 H         -19.0021   -4.7494  -23.3354 H       1  UNK1        0.0294
     38 H         -18.7974   -3.5598  -24.5941 H       1  UNK1        0.0294
     39 H         -18.5440   -5.5065  -26.2830 H       1  UNK1        0.0395
     40 H         -19.2359   -7.5856  -25.3168 H       1  UNK1        0.0288
     41 H         -18.6946   -7.0955  -23.7212 H       1  UNK1        0.0288
     42 H         -16.9823   -8.1399  -25.9709 H       1  UNK1        0.0462
     43 H         -16.8245   -8.3790  -24.2242 H       1  UNK1        0.0462
     44 H         -15.1937   -6.6091  -24.9628 H       1  UNK1        0.1487
     45 H         -20.7553   -3.2377  -26.2931 H       1  UNK1        0.1494
     46 H         -21.0292   -3.4417  -28.5141 H       1  UNK1        0.0598
     47 H         -23.4339   -3.5384  -27.7192 H       1  UNK1        0.0336
     48 H         -23.6413   -5.0545  -28.5523 H       1  UNK1        0.0336
     49 H         -23.0559   -1.4199  -28.9692 H       1  UNK1        0.0620
     50 H         -23.7754   -0.1887  -30.9760 H       1  UNK1        0.0618
     51 H         -24.6174   -1.4158  -32.9215 H       1  UNK1        0.0618
     52 H         -24.6014   -3.8731  -32.9833 H       1  UNK1        0.0618
     53 H         -23.9168   -5.1463  -30.9889 H       1  UNK1        0.0620
     54 H         -21.8313   -5.3355  -30.3205 H       1  UNK1        0.1498
     55 H         -20.7525   -6.5746  -31.6156 H       0  UNK0        0.0669
     56 H         -17.9937   -7.4157  -30.5673 H       0  UNK0        0.0626
     57 H         -16.5431   -8.5758  -31.9427 H       0  UNK0        0.0625
     58 H         -16.0595  -10.0483  -33.8389 H       0  UNK0        0.0632
     59 H         -20.1179   -9.7034  -35.1638 H       0  UNK0        0.0661
@<TRIPOS>BOND
     1     1     2    2
     2     2     3    1
     3     2    35    1
     4     3     4    1
     5     3    11    1
     6     3    36    1
     7     4     5    1
     8     4    37    1
     9     4    38    1
    10     5     9    1
    11     5     6    1
    12     5    39    1
    13     6     7    1
    14     6    40    1
    15     6    41    1
    16     7     8    1
    17     7    42    1
    18     7    43    1
    19     8     9   am
    20     8    44    1
    21     9    10    2
    22    11    12   am
    23    11    45    1
    24    12    13    2
    25    12    14    1
    26    14    15    1
    27    14    22    1
    28    14    46    1
    29    15    16    1
    30    15    47    1
    31    15    48    1
    32    16    21   ar
    33    16    17   ar
    34    17    18   ar
    35    17    49    1
    36    18    19   ar
    37    18    50    1
    38    19    20   ar
    39    19    51    1
    40    20    21   ar
    41    20    52    1
    42    21    53    1
    43    22    23   am
    44    22    54    1
    45    23    24    2
    46    23    25    1
    47    25    26    2
    48    25    55    1
    49    26    27    1
    50    26    56    1
    51    27    33   ar
    52    27    28   ar
    53    28    29   ar
    54    28    57    1
    55    29    30   ar
    56    29    58    1
    57    30    31    1
    58    30    32   ar
    59    32    33   ar
    60    32    59    1
    61    33    34    1
