@<TRIPOS>MOLECULE
*****
 73 76 0 0 0
SMALL
GASTEIGER
****
Schrodinger Suite 2019-4.
@<TRIPOS>ATOM
      1 C         -20.7660   -9.7094  -31.6966 C.3     1  UNL1       -0.0442
      2 C         -20.3047   -9.7961  -30.2280 C.3     1  UNL1        0.0262
      3 C         -20.9263  -11.0582  -29.5934 C.3     1  UNL1       -0.0442
      4 C         -18.7613   -9.8922  -30.2042 C.3     1  UNL1       -0.0442
      5 N         -20.7640   -8.5732  -29.5616 N.am    1  UNL1       -0.3087
      6 C         -20.5520   -8.1599  -28.2954 C.2     1  UNL1        0.2388
      7 O         -20.0744   -8.8892  -27.4295 O.2     1  UNL1       -0.2734
      8 C         -21.0324   -6.7085  -27.9631 C.3     1  UNL1        0.1326
      9 C         -20.6029   -5.6646  -28.9820 C.ar    1  UNL1       -0.0109
     10 C         -21.0020   -4.3243  -28.8833 C.ar    1  UNL1       -0.0493
     11 C         -20.7536   -3.5852  -30.0234 C.ar    1  UNL1       -0.0240
     12 S         -19.8380   -4.4577  -31.1876 S.2     1  UNL1       -0.1047
     13 C         -19.8378   -5.8387  -30.1432 C.ar    1  UNL1       -0.0189
     14 N         -20.8915   -6.2456  -26.5443 N.am    1  UNL1       -0.2538
     15 C         -21.9566   -5.8311  -25.7805 C.2     1  UNL1        0.2423
     16 O         -21.8263   -5.3384  -24.6525 O.2     1  UNL1       -0.2732
     17 C         -23.4060   -5.9492  -26.2956 C.3     1  UNL1        0.1204
     18 N         -23.8091   -4.8856  -27.2042 N.ar    1  UNL1       -0.2351
     19 N         -23.8380   -3.6106  -26.7722 N.ar    1  UNL1       -0.0641
     20 N         -24.1843   -2.8042  -27.8285 N.ar    1  UNL1       -0.1295
     21 C         -24.2720   -3.5849  -28.9376 C.ar    1  UNL1        0.1127
     22 C         -24.5148   -3.2401  -30.2733 C.ar    1  UNL1       -0.0324
     23 C         -24.4814   -4.2647  -31.2212 C.ar    1  UNL1       -0.0596
     24 C         -24.2382   -5.5869  -30.8427 C.ar    1  UNL1       -0.0596
     25 C         -24.0381   -5.9613  -29.5166 C.ar    1  UNL1       -0.0345
     26 C         -24.0400   -4.9329  -28.5707 C.ar    1  UNL1        0.0895
     27 C         -19.6048   -6.0635  -26.0024 C.ar    1  UNL1        0.0376
     28 C         -18.9685   -7.1216  -25.3526 C.ar    1  UNL1       -0.0385
     29 C         -17.6754   -6.9772  -24.8786 C.ar    1  UNL1       -0.0387
     30 C         -17.0367   -5.7501  -25.0077 C.ar    1  UNL1        0.0335
     31 N         -15.6886   -5.7269  -24.6561 N.am    1  UNL1       -0.2851
     32 C         -14.9382   -4.6255  -24.4983 C.2     1  UNL1        0.2226
     33 O         -15.3816   -3.6037  -23.9921 O.2     1  UNL1       -0.2749
     34 C         -13.5876   -4.6030  -25.2506 C.3     1  UNL1        0.0389
     35 C         -12.9208   -6.0044  -25.1921 C.3     1  UNL1       -0.0517
     36 C         -12.5501   -3.6039  -24.6662 C.3     1  UNL1       -0.0517
     37 C         -13.9769   -4.1755  -26.7008 C.3     1  UNL1       -0.0517
     38 C         -17.6980   -4.6577  -25.5948 C.ar    1  UNL1       -0.0387
     39 C         -18.9777   -4.8198  -26.1051 C.ar    1  UNL1       -0.0385
     40 H         -20.3543   -8.8319  -32.1989 H       1  UNL1        0.0250
     41 H         -20.4555  -10.5836  -32.2709 H       1  UNL1        0.0250
     42 H         -21.8519   -9.6427  -31.7728 H       1  UNL1        0.0250
     43 H         -20.5995  -11.1910  -28.5637 H       1  UNL1        0.0250
     44 H         -22.0152  -11.0048  -29.5924 H       1  UNL1        0.0250
     45 H         -20.6445  -11.9616  -30.1379 H       1  UNL1        0.0250
     46 H         -18.3712   -9.9634  -29.1887 H       1  UNL1        0.0250
     47 H         -18.4079  -10.7717  -30.7415 H       1  UNL1        0.0250
     48 H         -18.2941   -9.0214  -30.6652 H       1  UNL1        0.0250
     49 H         -21.2288   -7.9159  -30.1715 H       1  UNL1        0.1493
     50 H         -22.0871   -6.8533  -28.1355 H       1  UNL1        0.0651
     51 H         -21.5281   -3.9105  -28.0386 H       1  UNL1        0.0626
     52 H         -21.0383   -2.5599  -30.2073 H       1  UNL1        0.0693
     53 H         -19.3201   -6.7233  -30.4848 H       1  UNL1        0.0697
     54 H         -24.0850   -5.9314  -25.4407 H       1  UNL1        0.0606
     55 H         -23.5950   -6.9030  -26.7779 H       1  UNL1        0.0606
     56 H         -24.6938   -2.2140  -30.5574 H       1  UNL1        0.0640
     57 H         -24.6461   -4.0316  -32.2640 H       1  UNL1        0.0618
     58 H         -24.2168   -6.3601  -31.5920 H       1  UNL1        0.0618
     59 H         -23.8805   -6.9988  -29.2560 H       1  UNL1        0.0639
     60 H         -19.4648   -8.0638  -25.2123 H       1  UNL1        0.0637
     61 H         -17.1748   -7.8232  -24.4304 H       1  UNL1        0.0637
     62 H         -15.1952   -6.5848  -24.8632 H       1  UNL1        0.1548
     63 H         -12.0201   -6.0531  -25.7986 H       1  UNL1        0.0239
     64 H         -12.6309   -6.2725  -24.1747 H       1  UNL1        0.0239
     65 H         -13.5854   -6.7873  -25.5452 H       1  UNL1        0.0239
     66 H         -11.5254   -3.9546  -24.7912 H       1  UNL1        0.0239
     67 H         -12.5745   -2.6462  -25.1917 H       1  UNL1        0.0239
     68 H         -12.6635   -3.4473  -23.5924 H       1  UNL1        0.0239
     69 H         -13.4382   -3.2928  -27.0315 H       1  UNL1        0.0239
     70 H         -13.8378   -4.9811  -27.4163 H       1  UNL1        0.0239
     71 H         -15.0147   -3.8575  -26.8273 H       1  UNL1        0.0239
     72 H         -17.2169   -3.6976  -25.7113 H       1  UNL1        0.0637
     73 H         -19.4710   -3.9826  -26.5765 H       1  UNL1        0.0637
@<TRIPOS>BOND
     1     1     2    1
     2     1    40    1
     3     1    41    1
     4     1    42    1
     5     2     3    1
     6     2     4    1
     7     2     5    1
     8     3    43    1
     9     3    44    1
    10     3    45    1
    11     4    46    1
    12     4    47    1
    13     4    48    1
    14     5     6   am
    15     5    49    1
    16     6     7    2
    17     6     8    1
    18     8     9    1
    19     8    14    1
    20     8    50    1
    21     9    13   ar
    22     9    10   ar
    23    10    11   ar
    24    10    51    1
    25    11    12   ar
    26    11    52    1
    27    12    13   ar
    28    13    53    1
    29    14    15   am
    30    14    27    1
    31    15    16    2
    32    15    17    1
    33    17    18    1
    34    17    54    1
    35    17    55    1
    36    18    26   ar
    37    18    19   ar
    38    19    20   ar
    39    20    21   ar
    40    21    26   ar
    41    21    22   ar
    42    22    23   ar
    43    22    56    1
    44    23    24   ar
    45    23    57    1
    46    24    25   ar
    47    24    58    1
    48    25    26   ar
    49    25    59    1
    50    27    39   ar
    51    27    28   ar
    52    28    29   ar
    53    28    60    1
    54    29    30   ar
    55    29    61    1
    56    30    31    1
    57    30    38   ar
    58    31    32   am
    59    31    62    1
    60    32    33    2
    61    32    34    1
    62    34    35    1
    63    34    36    1
    64    34    37    1
    65    35    63    1
    66    35    64    1
    67    35    65    1
    68    36    66    1
    69    36    67    1
    70    36    68    1
    71    37    69    1
    72    37    70    1
    73    37    71    1
    74    38    39   ar
    75    38    72    1
    76    39    73    1
