
                    3D
 Schrodinger Suite 2019-4.
 71 75  0  0  1  0            999 V2000
  -23.1536   -2.0902  -30.4521 C   0  0  0  0  0  0
  -23.3629   -3.6052  -30.3389 C   0  0  0  0  0  0
  -24.7229   -4.0158  -30.8992 C   0  0  0  0  0  0
  -23.1957   -4.1188  -28.8899 C   0  0  0  0  0  0
  -21.7570   -4.5508  -28.5567 C   0  0  2  0  0  0
  -21.4146   -5.6920  -29.4062 N   0  0  0  0  0  0
  -20.1700   -6.1286  -29.6375 C   0  0  0  0  0  0
  -19.1737   -5.5953  -29.1511 O   0  0  0  0  0  0
  -20.0517   -7.2849  -30.5456 C   0  0  0  0  0  0
  -20.9597   -8.1270  -31.1391 C   0  0  0  0  0  0
  -20.2117   -9.0614  -31.9381 C   0  0  0  0  0  0
  -20.5396  -10.1569  -32.7732 C   0  0  0  0  0  0
  -21.8427  -10.5318  -32.9201 O   0  0  0  0  0  0
  -19.5369  -10.8735  -33.4590 C   0  0  0  0  0  0
  -18.1812  -10.5170  -33.3223 C   0  0  0  0  0  0
  -17.8225   -9.4457  -32.4857 C   0  0  0  0  0  0
  -18.8305   -8.7412  -31.8053 C   0  0  0  0  0  0
  -18.7848   -7.6766  -30.9352 N   0  0  0  0  0  0
  -21.6998   -4.9936  -27.0891 C   0  0  0  0  0  0
  -22.1670   -6.0859  -26.7619 O   0  0  0  0  0  0
  -21.1126   -4.1599  -26.2150 N   0  0  0  0  0  0
  -20.8162   -4.5192  -24.8239 C   0  0  1  0  0  0
  -19.3036   -4.2998  -24.5827 C   0  0  0  0  0  0
  -18.4231   -5.3196  -25.3398 C   0  0  2  0  0  0
  -18.6895   -6.7846  -24.9592 C   0  0  0  0  0  0
  -17.3172   -7.4620  -24.8862 C   0  0  0  0  0  0
  -16.3843   -6.3617  -24.7904 N   0  0  0  0  0  0
  -16.9338   -5.1813  -25.0568 C   0  0  0  0  0  0
  -16.3243   -4.1198  -25.1113 O   0  0  0  0  0  0
  -21.6968   -3.7184  -23.8403 C   0  0  0  0  0  0
  -21.2473   -3.1233  -22.8615 O   0  0  0  0  0  0
  -23.1585   -3.6785  -24.1127 C   0  0  0  0  0  0
  -23.8691   -4.6709  -24.6572 N   0  0  0  0  0  0
  -25.1735   -4.2594  -24.8846 C   0  0  0  0  0  0
  -26.2051   -5.0181  -25.4781 C   0  0  0  0  0  0
  -27.4701   -4.4539  -25.7232 C   0  0  0  0  0  0
  -27.7171   -3.1130  -25.3884 C   0  0  0  0  0  0
  -26.7181   -2.3447  -24.7616 C   0  0  0  0  0  0
  -25.4670   -2.9222  -24.4995 C   0  0  0  0  0  0
  -24.0610   -2.2148  -23.7276 S   0  0  0  0  0  0
  -22.1686   -1.7966  -30.0957 H   0  0  0  0  0  0
  -23.2392   -1.7621  -31.4877 H   0  0  0  0  0  0
  -23.8937   -1.5418  -29.8721 H   0  0  0  0  0  0
  -22.6179   -4.0656  -30.9875 H   0  0  0  0  0  0
  -24.7760   -5.0918  -31.0556 H   0  0  0  0  0  0
  -25.5216   -3.7456  -30.2128 H   0  0  0  0  0  0
  -24.9019   -3.5476  -31.8671 H   0  0  0  0  0  0
  -23.8631   -4.9659  -28.7203 H   0  0  0  0  0  0
  -23.5288   -3.3565  -28.1859 H   0  0  0  0  0  0
  -21.0708   -3.7229  -28.7348 H   0  0  0  0  0  0
  -22.1846   -6.1980  -29.8220 H   0  0  0  0  0  0
  -22.0336   -8.1025  -31.0451 H   0  0  0  0  0  0
  -22.4548   -9.8939  -32.5836 H   0  0  0  0  0  0
  -19.8096  -11.7039  -34.0947 H   0  0  0  0  0  0
  -17.4183  -11.0682  -33.8524 H   0  0  0  0  0  0
  -16.7856   -9.1667  -32.3662 H   0  0  0  0  0  0
  -17.9527   -7.1713  -30.6561 H   0  0  0  0  0  0
  -20.7716   -3.2689  -26.5489 H   0  0  0  0  0  0
  -21.0327   -5.5708  -24.6396 H   0  0  0  0  0  0
  -19.0914   -4.3731  -23.5188 H   0  0  0  0  0  0
  -19.0124   -3.2913  -24.8748 H   0  0  0  0  0  0
  -18.5447   -5.1970  -26.4165 H   0  0  0  0  0  0
  -19.3516   -7.2812  -25.6694 H   0  0  0  0  0  0
  -19.1622   -6.8400  -23.9809 H   0  0  0  0  0  0
  -17.1045   -8.0281  -25.7945 H   0  0  0  0  0  0
  -17.2321   -8.1311  -24.0294 H   0  0  0  0  0  0
  -15.3929   -6.5008  -24.6341 H   0  0  0  0  0  0
  -26.0128   -6.0405  -25.7712 H   0  0  0  0  0  0
  -28.2457   -5.0428  -26.1912 H   0  0  0  0  0  0
  -28.6850   -2.6833  -25.5989 H   0  0  0  0  0  0
  -26.9076   -1.3191  -24.4851 H   0  0  0  0  0  0
  1  2  1  0  0  0
  1 41  1  0  0  0
  1 42  1  0  0  0
  1 43  1  0  0  0
  2  3  1  0  0  0
  2  4  1  0  0  0
  2 44  1  0  0  0
  3 45  1  0  0  0
  3 46  1  0  0  0
  3 47  1  0  0  0
  4  5  1  0  0  0
  4 48  1  0  0  0
  4 49  1  0  0  0
  5  6  1  0  0  0
  5 19  1  0  0  0
  5 50  1  0  0  0
  6  7  1  0  0  0
  6 51  1  0  0  0
  7  8  2  0  0  0
  7  9  1  0  0  0
  9 18  1  0  0  0
  9 10  2  0  0  0
 10 11  1  0  0  0
 10 52  1  0  0  0
 11 17  1  0  0  0
 11 12  2  0  0  0
 12 13  1  0  0  0
 12 14  1  0  0  0
 13 53  1  0  0  0
 14 15  2  0  0  0
 14 54  1  0  0  0
 15 16  1  0  0  0
 15 55  1  0  0  0
 16 17  2  0  0  0
 16 56  1  0  0  0
 17 18  1  0  0  0
 18 57  1  0  0  0
 19 20  2  0  0  0
 19 21  1  0  0  0
 21 22  1  0  0  0
 21 58  1  0  0  0
 22 23  1  0  0  0
 22 30  1  0  0  0
 22 59  1  0  0  0
 23 24  1  0  0  0
 23 60  1  0  0  0
 23 61  1  0  0  0
 24 28  1  0  0  0
 24 25  1  0  0  0
 24 62  1  0  0  0
 25 26  1  0  0  0
 25 63  1  0  0  0
 25 64  1  0  0  0
 26 27  1  0  0  0
 26 65  1  0  0  0
 26 66  1  0  0  0
 27 28  1  0  0  0
 27 67  1  0  0  0
 28 29  2  0  0  0
 30 31  2  0  0  0
 30 32  1  0  0  0
 32 40  1  0  0  0
 32 33  2  0  0  0
 33 34  1  0  0  0
 34 39  2  0  0  0
 34 35  1  0  0  0
 35 36  2  0  0  0
 35 68  1  0  0  0
 36 37  1  0  0  0
 36 69  1  0  0  0
 37 38  2  0  0  0
 37 70  1  0  0  0
 38 39  1  0  0  0
 38 71  1  0  0  0
 39 40  1  0  0  0
M  END
$$$$
