@<TRIPOS>MOLECULE
*****
 71 75 0 0 0
SMALL
GASTEIGER
****
Schrodinger Suite 2019-4.
@<TRIPOS>ATOM
      1 C         -23.1536   -2.0902  -30.4521 C.3     1  UNL1       -0.0626
      2 C         -23.3629   -3.6052  -30.3389 C.3     1  UNL1       -0.0446
      3 C         -24.7229   -4.0158  -30.8992 C.3     1  UNL1       -0.0626
      4 C         -23.1957   -4.1188  -28.8899 C.3     1  UNL1       -0.0236
      5 C         -21.7570   -4.5508  -28.5567 C.3     1  UNL1        0.0999
      6 N         -21.4146   -5.6920  -29.4062 N.am    1  UNL1       -0.2988
      7 C         -20.1700   -6.1286  -29.6375 C.2     1  UNL1        0.2610
      8 O         -19.1737   -5.5953  -29.1511 O.2     1  UNL1       -0.2686
      9 C         -20.0517   -7.2849  -30.5456 C.ar    1  UNL1        0.1029
     10 C         -20.9597   -8.1270  -31.1391 C.ar    1  UNL1       -0.0207
     11 C         -20.2117   -9.0614  -31.9381 C.ar    1  UNL1        0.0418
     12 C         -20.5396  -10.1569  -32.7732 C.ar    1  UNL1        0.1260
     13 O         -21.8427  -10.5318  -32.9201 O.3     1  UNL1       -0.5061
     14 C         -19.5369  -10.8735  -33.4590 C.ar    1  UNL1       -0.0195
     15 C         -18.1812  -10.5170  -33.3223 C.ar    1  UNL1       -0.0563
     16 C         -17.8225   -9.4457  -32.4857 C.ar    1  UNL1       -0.0376
     17 C         -18.8305   -8.7412  -31.8053 C.ar    1  UNL1        0.0505
     18 N         -18.7848   -7.6766  -30.9352 N.ar    1  UNL1       -0.3505
     19 C         -21.6998   -4.9936  -27.0891 C.2     1  UNL1        0.2339
     20 O         -22.1670   -6.0859  -26.7619 O.2     1  UNL1       -0.2738
     21 N         -21.1126   -4.1599  -26.2150 N.am    1  UNL1       -0.3037
     22 C         -20.8162   -4.5192  -24.8239 C.3     1  UNL1        0.0888
     23 C         -19.3036   -4.2998  -24.5827 C.3     1  UNL1       -0.0160
     24 C         -18.4231   -5.3196  -25.3398 C.3     1  UNL1        0.0390
     25 C         -18.6895   -6.7846  -24.9592 C.3     1  UNL1       -0.0262
     26 C         -17.3172   -7.4620  -24.8862 C.3     1  UNL1        0.0123
     27 N         -16.3843   -6.3617  -24.7904 N.am    1  UNL1       -0.3151
     28 C         -16.9338   -5.1813  -25.0568 C.2     1  UNL1        0.2162
     29 O         -16.3243   -4.1198  -25.1113 O.2     1  UNL1       -0.2755
     30 C         -21.6968   -3.7184  -23.8403 C.2     1  UNL1        0.2079
     31 O         -21.2473   -3.1233  -22.8615 O.2     1  UNL1       -0.2879
     32 C         -23.1585   -3.6785  -24.1127 C.ar    1  UNL1        0.1465
     33 N         -23.8691   -4.6709  -24.6572 N.ar    1  UNL1       -0.2360
     34 C         -25.1735   -4.2594  -24.8846 C.ar    1  UNL1        0.0790
     35 C         -26.2051   -5.0181  -25.4781 C.ar    1  UNL1       -0.0352
     36 C         -27.4701   -4.4539  -25.7232 C.ar    1  UNL1       -0.0597
     37 C         -27.7171   -3.1130  -25.3884 C.ar    1  UNL1       -0.0606
     38 C         -26.7181   -2.3447  -24.7616 C.ar    1  UNL1       -0.0459
     39 C         -25.4670   -2.9222  -24.4995 C.ar    1  UNL1        0.0396
     40 S         -24.0610   -2.2148  -23.7276 S.2     1  UNL1       -0.0643
     41 H         -22.1686   -1.7966  -30.0957 H       1  UNL1        0.0232
     42 H         -23.2392   -1.7621  -31.4877 H       1  UNL1        0.0232
     43 H         -23.8937   -1.5418  -29.8721 H       1  UNL1        0.0232
     44 H         -22.6179   -4.0656  -30.9875 H       1  UNL1        0.0296
     45 H         -24.7760   -5.0918  -31.0556 H       1  UNL1        0.0232
     46 H         -25.5216   -3.7456  -30.2128 H       1  UNL1        0.0232
     47 H         -24.9019   -3.5476  -31.8671 H       1  UNL1        0.0232
     48 H         -23.8631   -4.9659  -28.7203 H       1  UNL1        0.0290
     49 H         -23.5288   -3.3565  -28.1859 H       1  UNL1        0.0290
     50 H         -21.0708   -3.7229  -28.7348 H       1  UNL1        0.0595
     51 H         -22.1846   -6.1980  -29.8220 H       1  UNL1        0.1498
     52 H         -22.0336   -8.1025  -31.0451 H       1  UNL1        0.0647
     53 H         -22.4548   -9.8939  -32.5836 H       1  UNL1        0.2922
     54 H         -19.8096  -11.7039  -34.0947 H       1  UNL1        0.0654
     55 H         -17.4183  -11.0682  -33.8524 H       1  UNL1        0.0619
     56 H         -16.7856   -9.1667  -32.3662 H       1  UNL1        0.0638
     57 H         -17.9527   -7.1713  -30.6561 H       1  UNL1        0.1660
     58 H         -20.7716   -3.2689  -26.5489 H       1  UNL1        0.1495
     59 H         -21.0327   -5.5708  -24.6396 H       1  UNL1        0.0582
     60 H         -19.0914   -4.3731  -23.5188 H       1  UNL1        0.0295
     61 H         -19.0124   -3.2913  -24.8748 H       1  UNL1        0.0295
     62 H         -18.5447   -5.1970  -26.4165 H       1  UNL1        0.0395
     63 H         -19.3516   -7.2812  -25.6694 H       1  UNL1        0.0288
     64 H         -19.1622   -6.8400  -23.9809 H       1  UNL1        0.0288
     65 H         -17.1045   -8.0281  -25.7945 H       1  UNL1        0.0462
     66 H         -17.2321   -8.1311  -24.0294 H       1  UNL1        0.0462
     67 H         -15.3929   -6.5008  -24.6341 H       1  UNL1        0.1487
     68 H         -26.0128   -6.0405  -25.7712 H       1  UNL1        0.0639
     69 H         -28.2457   -5.0428  -26.1912 H       1  UNL1        0.0618
     70 H         -28.6850   -2.6833  -25.5989 H       1  UNL1        0.0618
     71 H         -26.9076   -1.3191  -24.4851 H       1  UNL1        0.0629
@<TRIPOS>BOND
     1     1     2    1
     2     1    41    1
     3     1    42    1
     4     1    43    1
     5     2     3    1
     6     2     4    1
     7     2    44    1
     8     3    45    1
     9     3    46    1
    10     3    47    1
    11     4     5    1
    12     4    48    1
    13     4    49    1
    14     5     6    1
    15     5    19    1
    16     5    50    1
    17     6     7   am
    18     6    51    1
    19     7     8    2
    20     7     9    1
    21     9    18   ar
    22     9    10   ar
    23    10    11   ar
    24    10    52    1
    25    11    17   ar
    26    11    12   ar
    27    12    13    1
    28    12    14   ar
    29    13    53    1
    30    14    15   ar
    31    14    54    1
    32    15    16   ar
    33    15    55    1
    34    16    17   ar
    35    16    56    1
    36    17    18   ar
    37    18    57    1
    38    19    20    2
    39    19    21   am
    40    21    22    1
    41    21    58    1
    42    22    23    1
    43    22    30    1
    44    22    59    1
    45    23    24    1
    46    23    60    1
    47    23    61    1
    48    24    28    1
    49    24    25    1
    50    24    62    1
    51    25    26    1
    52    25    63    1
    53    25    64    1
    54    26    27    1
    55    26    65    1
    56    26    66    1
    57    27    28   am
    58    27    67    1
    59    28    29    2
    60    30    31    2
    61    30    32    1
    62    32    40   ar
    63    32    33   ar
    64    33    34   ar
    65    34    39   ar
    66    34    35   ar
    67    35    36   ar
    68    35    68    1
    69    36    37   ar
    70    36    69    1
    71    37    38   ar
    72    37    70    1
    73    38    39   ar
    74    38    71    1
    75    39    40   ar
