@<TRIPOS>MOLECULE
*****
 89 89 0 0 0
SMALL
GASTEIGER
****
Schrodinger Suite 2019-4.
@<TRIPOS>ATOM
      1 C         -17.1455  -10.6519  -39.3625 C.3     0  UNK0        0.0122
      2 C         -17.6858   -9.3028  -38.9134 C.2     0  UNK0        0.2106
      3 O         -17.3604   -8.3016  -39.5451 O.2     0  UNK0       -0.2761
      4 N         -18.4990   -9.3005  -37.8390 N.am    1  SER1       -0.3023
      5 CA        -19.2540   -8.1859  -37.2517 C.3     1  SER1        0.1225
      6 CB        -20.7222   -8.6448  -37.1993 C.3     1  SER1        0.0711
      7 OG        -21.5337   -7.7264  -36.5108 O.3     1  SER1       -0.3927
      8 C         -18.7819   -7.8379  -35.8262 C.2     1  SER1        0.2362
      9 O         -18.5374   -8.7270  -35.0131 O.2     1  SER1       -0.2737
     10 N         -18.6902   -6.5295  -35.5298 N.am    2  ALA2       -0.3027
     11 CA        -18.3622   -5.9609  -34.2253 C.3     2  ALA2        0.0966
     12 CB        -17.9841   -4.4871  -34.4259 C.3     2  ALA2       -0.0381
     13 C         -19.5711   -6.0362  -33.2751 C.2     2  ALA2        0.2337
     14 O         -20.7142   -5.8010  -33.6698 O.2     2  ALA2       -0.2738
     15 N         -19.3142   -6.4020  -32.0155 N.am    3  VAL3       -0.3022
     16 CA        -20.3424   -6.6940  -31.0249 C.3     3  VAL3        0.1017
     17 C         -20.5294   -5.4635  -30.1271 C.2     3  VAL3        0.2342
     18 O         -19.5663   -4.9728  -29.5404 O.2     3  VAL3       -0.2738
     19 N         -21.7843   -5.0041  -30.0012 N.am    4  LEU4       -0.3025
     20 CA        -22.1963   -3.8809  -29.1645 C.3     4  LEU4        0.0996
     21 CB        -23.5291   -3.3067  -29.7009 C.3     4  LEU4       -0.0236
     22 CG        -23.3906   -2.4650  -30.9906 C.3     4  LEU4       -0.0446
     23 CD1       -24.5699   -1.4930  -31.1523 C.3     4  LEU4       -0.0626
     24 CD2       -23.2301   -3.3150  -32.2632 C.3     4  LEU4       -0.0626
     25 C         -22.4203   -4.3950  -27.7338 C.2     4  LEU4        0.2339
     26 O         -23.2309   -5.2983  -27.5208 O.2     4  LEU4       -0.2738
     27 N         -21.6749   -3.8418  -26.7651 N.am    5  PHE5       -0.3044
     28 CA        -21.6041   -4.3535  -25.3939 C.3     5  PHE5        0.0787
     29 C         -22.5951   -3.6408  -24.4661 C.2     5  PHE5        0.1404
     30 O         -23.1461   -2.5697  -24.7039 O.2     5  PHE5       -0.2991
     31 CB        -20.1903   -4.1051  -24.8386 C.3     5  PHE5       -0.0250
     32 CG        -19.0753   -4.8615  -25.5790 C.3     5  PHE5       -0.0390
     33 CD2       -19.1992   -6.3930  -25.4604 C.3     5  PHE5       -0.0501
     34 CE2       -18.0340   -7.1118  -26.1524 C.3     5  PHE5       -0.0528
     35 CZ        -16.6800   -6.6176  -25.6275 C.3     5  PHE5       -0.0530
     36 CE1       -16.5646   -5.0926  -25.7582 C.3     5  PHE5       -0.0528
     37 CD1       -17.7177   -4.4058  -25.0342 C.3     5  PHE5       -0.0501
     38 CB        -19.8796   -7.9124  -30.1864 C.3     3  VAL3       -0.0197
     39 CG1       -19.5662   -9.1356  -31.0739 C.3     3  VAL3       -0.0605
     40 CG2       -20.9313   -8.2954  -29.1335 C.3     3  VAL3       -0.0605
     41 H         -17.1352  -11.3678  -38.5381 H       0  UNK0        0.0322
     42 H         -17.7598  -11.0550  -40.1678 H       0  UNK0        0.0322
     43 H         -16.1242  -10.5472  -39.7339 H       0  UNK0        0.0322
     44 H         -18.6446  -10.1919  -37.3884 H       1  SER1        0.1495
     45 HA        -19.1606   -7.2912  -37.8640 H       1  SER1        0.0618
     46 HB1       -20.8080   -9.6047  -36.6899 H       1  SER1        0.0580
     47 HB2       -21.1148   -8.7920  -38.2046 H       1  SER1        0.0580
     48 H         -22.4264   -8.0360  -36.5483 H       1  SER1        0.2095
     49 H         -18.9713   -5.8700  -36.2415 H       2  ALA2        0.1495
     50 HA        -17.5148   -6.5101  -33.8119 H       2  ALA2        0.0592
     51 HB1       -17.6422   -4.0404  -33.4912 H       2  ALA2        0.0252
     52 HB2       -17.1802   -4.3910  -35.1499 H       2  ALA2        0.0252
     53 HB3       -18.8187   -3.8974  -34.8020 H       2  ALA2        0.0252
     54 H         -18.3509   -6.5444  -31.7392 H       3  VAL3        0.1495
     55 HA        -21.2888   -6.9444  -31.5102 H       3  VAL3        0.0597
     56 H         -22.5169   -5.4753  -30.5107 H       4  LEU4        0.1495
     57 HA        -21.4300   -3.1085  -29.1704 H       4  LEU4        0.0594
     58 HB1       -23.9352   -2.6586  -28.9229 H       4  LEU4        0.0290
     59 HB2       -24.2708   -4.0943  -29.8441 H       4  LEU4        0.0290
     60 HG        -22.4946   -1.8516  -30.8846 H       4  LEU4        0.0296
     61 HD11      -24.1990   -0.4805  -31.2866 H       4  LEU4        0.0232
     62 HD12      -25.1928   -1.7348  -32.0122 H       4  LEU4        0.0232
     63 HD13      -25.2200   -1.4781  -30.2818 H       4  LEU4        0.0232
     64 HD21      -23.1515   -2.6781  -33.1417 H       4  LEU4        0.0232
     65 HD22      -22.3300   -3.9249  -32.2492 H       4  LEU4        0.0232
     66 HD23      -24.0812   -3.9818  -32.4064 H       4  LEU4        0.0232
     67 H         -21.0588   -3.0785  -27.0080 H       5  PHE5        0.1494
     68 HA        -21.8292   -5.4202  -25.3661 H       5  PHE5        0.0574
     69 H         -22.7847   -4.2032  -23.5518 H       5  PHE5        0.1046
     70 HB1       -20.1546   -4.3837  -23.7834 H       5  PHE5        0.0290
     71 HB2       -19.9641   -3.0422  -24.8648 H       5  PHE5        0.0290
     72 HG        -19.1139   -4.5946  -26.6361 H       5  PHE5        0.0301
     73 HD21      -20.1315   -6.7452  -25.9004 H       5  PHE5        0.0268
     74 HD22      -19.2241   -6.6758  -24.4073 H       5  PHE5        0.0268
     75 HE21      -18.0913   -6.9514  -27.2298 H       5  PHE5        0.0265
     76 HE22      -18.1168   -8.1848  -25.9881 H       5  PHE5        0.0265
     77 HZ1       -15.8767   -7.1102  -26.1697 H       5  PHE5        0.0265
     78 HZ2       -16.5614   -6.9037  -24.5808 H       5  PHE5        0.0265
     79 HE11      -16.6137   -4.7933  -26.8013 H       5  PHE5        0.0265
     80 HE12      -15.6066   -4.7485  -25.3680 H       5  PHE5        0.0265
     81 HD11      -17.6474   -4.6058  -23.9666 H       5  PHE5        0.0268
     82 HD12      -17.6494   -3.3311  -25.1492 H       5  PHE5        0.0268
     83 HB        -18.9591   -7.6553  -29.6590 H       3  VAL3        0.0318
     84 HG11      -19.3107  -10.0086  -30.4737 H       3  VAL3        0.0233
     85 HG12      -20.4235   -9.4049  -31.6918 H       3  VAL3        0.0233
     86 HG13      -18.7200   -8.9549  -31.7376 H       3  VAL3        0.0233
     87 HG21      -20.6668   -9.2164  -28.6202 H       3  VAL3        0.0233
     88 HG22      -21.0388   -7.5256  -28.3699 H       3  VAL3        0.0233
     89 HG23      -21.9087   -8.4526  -29.5894 H       3  VAL3        0.0233
@<TRIPOS>BOND
     1     1     2    1
     2     1    41    1
     3     1    42    1
     4     1    43    1
     5     2     3    2
     6     2     4   am
     7     4     5    1
     8     4    44    1
     9     5     6    1
    10     5     8    1
    11     5    45    1
    12     6     7    1
    13     6    46    1
    14     6    47    1
    15     7    48    1
    16     8     9    2
    17     8    10   am
    18    10    11    1
    19    10    49    1
    20    11    12    1
    21    11    13    1
    22    11    50    1
    23    12    51    1
    24    12    52    1
    25    12    53    1
    26    13    14    2
    27    13    15   am
    28    15    16    1
    29    15    54    1
    30    16    17    1
    31    16    38    1
    32    16    55    1
    33    17    18    2
    34    17    19   am
    35    19    20    1
    36    19    56    1
    37    20    21    1
    38    20    25    1
    39    20    57    1
    40    21    22    1
    41    21    58    1
    42    21    59    1
    43    22    23    1
    44    22    24    1
    45    22    60    1
    46    23    61    1
    47    23    62    1
    48    23    63    1
    49    24    64    1
    50    24    65    1
    51    24    66    1
    52    25    26    2
    53    25    27   am
    54    27    28    1
    55    27    67    1
    56    28    29    1
    57    28    31    1
    58    28    68    1
    59    29    30    2
    60    29    69    1
    61    31    32    1
    62    31    70    1
    63    31    71    1
    64    32    37    1
    65    32    33    1
    66    32    72    1
    67    33    34    1
    68    33    73    1
    69    33    74    1
    70    34    35    1
    71    34    75    1
    72    34    76    1
    73    35    36    1
    74    35    77    1
    75    35    78    1
    76    36    37    1
    77    36    79    1
    78    36    80    1
    79    37    81    1
    80    37    82    1
    81    38    39    1
    82    38    40    1
    83    38    83    1
    84    39    84    1
    85    39    85    1
    86    39    86    1
    87    40    87    1
    88    40    88    1
    89    40    89    1
