
                    3D
 Schrodinger Suite 2019-4.
 89 89  0  0  1  0            999 V2000
  -17.1455  -10.6519  -39.3625 C   0  0  0  0  0  0
  -17.6858   -9.3028  -38.9134 C   0  0  0  0  0  0
  -17.3604   -8.3016  -39.5451 O   0  0  0  0  0  0
  -18.4990   -9.3005  -37.8390 N   0  0  0  0  0  0
  -19.2540   -8.1859  -37.2517 C   0  0  1  0  0  0
  -20.7222   -8.6448  -37.1993 C   0  0  0  0  0  0
  -21.5337   -7.7264  -36.5108 O   0  0  0  0  0  0
  -18.7819   -7.8379  -35.8262 C   0  0  0  0  0  0
  -18.5374   -8.7270  -35.0131 O   0  0  0  0  0  0
  -18.6902   -6.5295  -35.5298 N   0  0  0  0  0  0
  -18.3622   -5.9609  -34.2253 C   0  0  1  0  0  0
  -17.9841   -4.4871  -34.4259 C   0  0  0  0  0  0
  -19.5711   -6.0362  -33.2751 C   0  0  0  0  0  0
  -20.7142   -5.8010  -33.6698 O   0  0  0  0  0  0
  -19.3142   -6.4020  -32.0155 N   0  0  0  0  0  0
  -20.3424   -6.6940  -31.0249 C   0  0  2  0  0  0
  -20.5294   -5.4635  -30.1271 C   0  0  0  0  0  0
  -19.5663   -4.9728  -29.5404 O   0  0  0  0  0  0
  -21.7843   -5.0041  -30.0012 N   0  0  0  0  0  0
  -22.1963   -3.8809  -29.1645 C   0  0  1  0  0  0
  -23.5291   -3.3067  -29.7009 C   0  0  0  0  0  0
  -23.3906   -2.4650  -30.9906 C   0  0  0  0  0  0
  -24.5699   -1.4930  -31.1523 C   0  0  0  0  0  0
  -23.2301   -3.3150  -32.2632 C   0  0  0  0  0  0
  -22.4203   -4.3950  -27.7338 C   0  0  0  0  0  0
  -23.2309   -5.2983  -27.5208 O   0  0  0  0  0  0
  -21.6749   -3.8418  -26.7651 N   0  0  0  0  0  0
  -21.6041   -4.3535  -25.3939 C   0  0  2  0  0  0
  -22.5951   -3.6408  -24.4661 C   0  0  0  0  0  0
  -23.1461   -2.5697  -24.7039 O   0  0  0  0  0  0
  -20.1903   -4.1051  -24.8386 C   0  0  0  0  0  0
  -19.0753   -4.8615  -25.5790 C   0  0  0  0  0  0
  -19.1992   -6.3930  -25.4604 C   0  0  0  0  0  0
  -18.0340   -7.1118  -26.1524 C   0  0  0  0  0  0
  -16.6800   -6.6176  -25.6275 C   0  0  0  0  0  0
  -16.5646   -5.0926  -25.7582 C   0  0  0  0  0  0
  -17.7177   -4.4058  -25.0342 C   0  0  0  0  0  0
  -19.8796   -7.9124  -30.1864 C   0  0  0  0  0  0
  -19.5662   -9.1356  -31.0739 C   0  0  0  0  0  0
  -20.9313   -8.2954  -29.1335 C   0  0  0  0  0  0
  -17.1352  -11.3678  -38.5381 H   0  0  0  0  0  0
  -17.7598  -11.0550  -40.1678 H   0  0  0  0  0  0
  -16.1242  -10.5472  -39.7339 H   0  0  0  0  0  0
  -18.6446  -10.1919  -37.3884 H   0  0  0  0  0  0
  -19.1606   -7.2912  -37.8640 H   0  0  0  0  0  0
  -20.8080   -9.6047  -36.6899 H   0  0  0  0  0  0
  -21.1148   -8.7920  -38.2046 H   0  0  0  0  0  0
  -22.4264   -8.0360  -36.5483 H   0  0  0  0  0  0
  -18.9713   -5.8700  -36.2415 H   0  0  0  0  0  0
  -17.5148   -6.5101  -33.8119 H   0  0  0  0  0  0
  -17.6422   -4.0404  -33.4912 H   0  0  0  0  0  0
  -17.1802   -4.3910  -35.1499 H   0  0  0  0  0  0
  -18.8187   -3.8974  -34.8020 H   0  0  0  0  0  0
  -18.3509   -6.5444  -31.7392 H   0  0  0  0  0  0
  -21.2888   -6.9444  -31.5102 H   0  0  0  0  0  0
  -22.5169   -5.4753  -30.5107 H   0  0  0  0  0  0
  -21.4300   -3.1085  -29.1704 H   0  0  0  0  0  0
  -23.9352   -2.6586  -28.9229 H   0  0  0  0  0  0
  -24.2708   -4.0943  -29.8441 H   0  0  0  0  0  0
  -22.4946   -1.8516  -30.8846 H   0  0  0  0  0  0
  -24.1990   -0.4805  -31.2866 H   0  0  0  0  0  0
  -25.1928   -1.7348  -32.0122 H   0  0  0  0  0  0
  -25.2200   -1.4781  -30.2818 H   0  0  0  0  0  0
  -23.1515   -2.6781  -33.1417 H   0  0  0  0  0  0
  -22.3300   -3.9249  -32.2492 H   0  0  0  0  0  0
  -24.0812   -3.9818  -32.4064 H   0  0  0  0  0  0
  -21.0588   -3.0785  -27.0080 H   0  0  0  0  0  0
  -21.8292   -5.4202  -25.3661 H   0  0  0  0  0  0
  -22.7847   -4.2032  -23.5518 H   0  0  0  0  0  0
  -20.1546   -4.3837  -23.7834 H   0  0  0  0  0  0
  -19.9641   -3.0422  -24.8648 H   0  0  0  0  0  0
  -19.1139   -4.5946  -26.6361 H   0  0  0  0  0  0
  -20.1315   -6.7452  -25.9004 H   0  0  0  0  0  0
  -19.2241   -6.6758  -24.4073 H   0  0  0  0  0  0
  -18.0913   -6.9514  -27.2298 H   0  0  0  0  0  0
  -18.1168   -8.1848  -25.9881 H   0  0  0  0  0  0
  -15.8767   -7.1102  -26.1697 H   0  0  0  0  0  0
  -16.5614   -6.9037  -24.5808 H   0  0  0  0  0  0
  -16.6137   -4.7933  -26.8013 H   0  0  0  0  0  0
  -15.6066   -4.7485  -25.3680 H   0  0  0  0  0  0
  -17.6474   -4.6058  -23.9666 H   0  0  0  0  0  0
  -17.6494   -3.3311  -25.1492 H   0  0  0  0  0  0
  -18.9591   -7.6553  -29.6590 H   0  0  0  0  0  0
  -19.3107  -10.0086  -30.4737 H   0  0  0  0  0  0
  -20.4235   -9.4049  -31.6918 H   0  0  0  0  0  0
  -18.7200   -8.9549  -31.7376 H   0  0  0  0  0  0
  -20.6668   -9.2164  -28.6202 H   0  0  0  0  0  0
  -21.0388   -7.5256  -28.3699 H   0  0  0  0  0  0
  -21.9087   -8.4526  -29.5894 H   0  0  0  0  0  0
  1  2  1  0  0  0
  1 41  1  0  0  0
  1 42  1  0  0  0
  1 43  1  0  0  0
  2  3  2  0  0  0
  2  4  1  0  0  0
  4  5  1  0  0  0
  4 44  1  0  0  0
  5  6  1  0  0  0
  5  8  1  0  0  0
  5 45  1  0  0  0
  6  7  1  0  0  0
  6 46  1  0  0  0
  6 47  1  0  0  0
  7 48  1  0  0  0
  8  9  2  0  0  0
  8 10  1  0  0  0
 10 11  1  0  0  0
 10 49  1  0  0  0
 11 12  1  0  0  0
 11 13  1  0  0  0
 11 50  1  0  0  0
 12 51  1  0  0  0
 12 52  1  0  0  0
 12 53  1  0  0  0
 13 14  2  0  0  0
 13 15  1  0  0  0
 15 16  1  0  0  0
 15 54  1  0  0  0
 16 17  1  0  0  0
 16 38  1  0  0  0
 16 55  1  0  0  0
 17 18  2  0  0  0
 17 19  1  0  0  0
 19 20  1  0  0  0
 19 56  1  0  0  0
 20 21  1  0  0  0
 20 25  1  0  0  0
 20 57  1  0  0  0
 21 22  1  0  0  0
 21 58  1  0  0  0
 21 59  1  0  0  0
 22 23  1  0  0  0
 22 24  1  0  0  0
 22 60  1  0  0  0
 23 61  1  0  0  0
 23 62  1  0  0  0
 23 63  1  0  0  0
 24 64  1  0  0  0
 24 65  1  0  0  0
 24 66  1  0  0  0
 25 26  2  0  0  0
 25 27  1  0  0  0
 27 28  1  0  0  0
 27 67  1  0  0  0
 28 29  1  0  0  0
 28 31  1  0  0  0
 28 68  1  0  0  0
 29 30  2  0  0  0
 29 69  1  0  0  0
 31 32  1  0  0  0
 31 70  1  0  0  0
 31 71  1  0  0  0
 32 37  1  0  0  0
 32 33  1  0  0  0
 32 72  1  0  0  0
 33 34  1  0  0  0
 33 73  1  0  0  0
 33 74  1  0  0  0
 34 35  1  0  0  0
 34 75  1  0  0  0
 34 76  1  0  0  0
 35 36  1  0  0  0
 35 77  1  0  0  0
 35 78  1  0  0  0
 36 37  1  0  0  0
 36 79  1  0  0  0
 36 80  1  0  0  0
 37 81  1  0  0  0
 37 82  1  0  0  0
 38 39  1  0  0  0
 38 40  1  0  0  0
 38 83  1  0  0  0
 39 84  1  0  0  0
 39 85  1  0  0  0
 39 86  1  0  0  0
 40 87  1  0  0  0
 40 88  1  0  0  0
 40 89  1  0  0  0
M  END
$$$$
