@<TRIPOS>MOLECULE
/home/lixiaoshuang.lxs/med/data/m_pro/PDB_BA/4twy/4twy_ligand.pdb
 35 39 0 0 0
SMALL
GASTEIGER

@<TRIPOS>ATOM
      1  C1       -27.5370  -43.3130    0.9660 C.ar  401  3BL401      0.0536
      2  O1       -20.8330  -45.0940    1.0620 O.2   401  3BL401     -0.2868
      3  C2       -27.3390  -44.6640    1.1520 C.ar  401  3BL401      0.0045
      4  C3       -28.2490  -45.5930    0.6960 C.ar  401  3BL401      0.0001
      5  C4       -29.3660  -45.1490    0.0460 C.ar  401  3BL401      0.0000
      6  C5       -30.3740  -46.0720   -0.4860 C.ar  401  3BL401      0.0000
      7  C6       -31.0330  -45.6960   -1.6280 C.ar  401  3BL401      0.0000
      8  C24      -21.1690  -44.4050    2.0000 C.2   401  3BL401      0.2248
      9  C23      -21.3890  -42.9200    1.8210 C.3   401  3BL401      0.1432
     10  C25      -20.0340  -42.2660    2.0130 C.3   401  3BL401      0.0728
     11  C26      -19.7540  -41.0340    1.2350 C.ar  401  3BL401      0.0817
     12  N3       -18.6940  -40.2660    1.4170 N.ar  401  3BL401     -0.2268
     13  C28      -18.7440  -39.2730    0.5510 C.ar  401  3BL401      0.1986
     14  N2       -19.8390  -39.3950   -0.1740 N.ar  401  3BL401     -0.2212
     15  C27      -20.4830  -40.4860    0.2240 C.ar  401  3BL401      0.1154
     16  N1       -22.2870  -42.4000    2.8650 N.3   401  3BL401     -0.2094
     17  C22      -23.6330  -42.9840    2.8290 C.3   401  3BL401      0.1089
     18  C21      -24.6630  -41.8660    2.8720 C.3   401  3BL401      0.0930
     19  C20      -24.7590  -41.2230    4.2470 C.3   401  3BL401      0.0214
     20  C19      -25.2810  -42.1930    5.2730 C.3   401  3BL401      0.0033
     21  C18      -25.3990  -41.5450    6.6240 C.3   401  3BL401      0.0001
     22  C17      -26.0040  -42.4880    7.6370 C.3   401  3BL401      0.0000
     23  C16      -27.3230  -43.0980    7.1800 C.3   401  3BL401      0.0001
     24  C15      -27.1840  -43.6920    5.8070 C.3   401  3BL401      0.0017
     25  C14      -26.6100  -42.7130    4.8150 C.3   401  3BL401      0.0199
     26  C13      -26.3520  -43.4820    3.5550 C.3   401  3BL401      0.0936
     27  N        -25.9170  -42.5390    2.5710 N.am  401  3BL401     -0.2763
     28  C        -26.5310  -42.3090    1.4480 C.2   401  3BL401      0.2490
     29  O        -26.2900  -41.3580    0.7780 O.2   401  3BL401     -0.2699
     30  C12      -28.6550  -42.8920    0.3120 C.ar  401  3BL401      0.0045
     31  C11      -29.5660  -43.8170   -0.1460 C.ar  401  3BL401      0.0001
     32  C10      -30.6380  -47.2690    0.1130 C.ar  401  3BL401      0.0000
     33  C9       -31.5890  -48.0960   -0.4390 C.ar  401  3BL401      0.0000
     34  C8       -32.2580  -47.7160   -1.5740 C.ar  401  3BL401      0.0000
     35  C7       -31.9800  -46.5160   -2.1720 C.ar  401  3BL401      0.0000
@<TRIPOS>BOND
     1    35     7   ar
     2    35    34   ar
     3     7     6   ar
     4    34    33   ar
     5     6     5    1
     6     6    32   ar
     7    33    32   ar
     8    14    15   ar
     9    14    13   ar
    10    31     5   ar
    11    31    30   ar
    12     5     4   ar
    13    15    11   ar
    14    30     1   ar
    15    13    12   ar
    16     4     3   ar
    17    29    28    2
    18     1     3   ar
    19     1    28    1
    20     2     8    2
    21    11    12   ar
    22    11    10    1
    23    28    27   am
    24     9     8    1
    25     9    10    1
    26     9    16    1
    27    27    18    1
    28    27    26    1
    29    17    16    1
    30    17    18    1
    31    18    19    1
    32    26    25    1
    33    19    20    1
    34    25    20    1
    35    25    24    1
    36    20    21    1
    37    24    23    1
    38    21    22    1
    39    23    22    1
