@<TRIPOS>MOLECULE
/home/lixiaoshuang.lxs/med/data/m_pro/PDB_BA/6lo0/6lo0_ligand.pdb
 29 30 0 0 0
SMALL
GASTEIGER

@<TRIPOS>ATOM
      1  C09      -24.1440  -15.1080    4.1330 C.2   401  EOF401      0.2421
      2  O18      -22.9160  -15.0340    4.1330 O.2   401  EOF401     -0.2733
      3  C10      -25.0160  -13.8450    3.8840 C.3   401  EOF401      0.0915
      4  C11      -24.3020  -12.7460    3.9050 C.3   401  EOF401      0.0360
      5  C12      -25.1770  -11.4460    3.6340 C.ar  401  EOF401     -0.0217
      6  C13      -26.5030  -11.4510    3.9470 C.ar  401  EOF401     -0.0043
      7  C14      -27.2660  -10.3080    3.6990 C.ar  401  EOF401     -0.0003
      8  C15      -26.6640   -9.1810    3.1330 C.ar  401  EOF401     -0.0000
      9  C16      -25.3210   -9.1750    2.8070 C.ar  401  EOF401     -0.0003
     10  C17      -24.5640  -10.3000    3.0510 C.ar  401  EOF401     -0.0043
     11  N08      -24.8260  -16.3970    4.3390 N.am  401  EOF401     -0.1978
     12  C03      -24.0460  -17.5710    4.5550 C.3   401  EOF401      0.1727
     13  C02      -23.3040  -17.9440    3.2510 C.2   401  EOF401      0.2616
     14  O01      -23.7580  -17.6690    2.1700 O.2   401  EOF401     -0.2715
     15  C04      -24.9840  -18.7450    4.9190 C.3   401  EOF401      0.0311
     16  C05      -25.7240  -18.5240    6.2490 C.3   401  EOF401      0.0022
     17  C06      -26.8990  -19.4960    6.3930 C.3   401  EOF401      0.0001
     18  C07      -24.7630  -18.6380    7.4500 C.3   401  EOF401      0.0001
     19  O29      -18.1280  -15.9500    2.1250 O.2   401  EOF401     -0.2734
     20  C28      -19.0100  -15.9060    1.3000 C.2   401  EOF401      0.2410
     21  N27      -19.0140  -15.1980    0.1460 N.am  401  EOF401     -0.2054
     22  C26      -20.3690  -15.4970   -0.5360 C.3   401  EOF401      0.1156
     23  C25      -20.8810  -16.8000    0.1920 C.3   401  EOF401      0.0326
     24  C24      -20.4010  -16.7180    1.4030 C.3   401  EOF401      0.0821
     25  C23      -20.0540  -18.1670    1.9920 C.3   401  EOF401      0.0389
     26  C20      -21.2600  -19.0690    2.1730 C.3   401  EOF401      0.1601
     27  N19      -22.0080  -18.6750    3.3630 N.am  401  EOF401     -0.1977
     28  C21      -20.7820  -20.4800    2.4290 C.2   401  EOF401      0.2287
     29  O22      -21.0950  -21.3320    1.7130 O.2   401  EOF401     -0.2864
@<TRIPOS>BOND
     1    22    21    1
     2    22    23    1
     3    21    20   am
     4    23    24    1
     5    20    24    1
     6    20    19    2
     7    24    25    1
     8    29    28    2
     9    25    26    1
    10    14    13    2
    11    26    28    1
    12    26    27    1
    13     9    10   ar
    14     9     8   ar
    15    10     5   ar
    16     8     7   ar
    17    13    27   am
    18    13    12    1
    19     5     4    1
    20     5     6   ar
    21     7     6   ar
    22     3     4    1
    23     3     1    1
    24     2     1    2
    25     1    11   am
    26    11    12    1
    27    12    15    1
    28    15    16    1
    29    16    17    1
    30    16    18    1
