@<TRIPOS>MOLECULE
*****
 70 74 0 0 0
SMALL
GASTEIGER
****
Schrodinger Suite 2019-4.
@<TRIPOS>ATOM
      1 C         -22.3290   -1.7724  -30.7437 C.3     1  UNL1       -0.0626
      2 C         -22.9010   -3.1807  -30.5151 C.3     1  UNL1       -0.0446
      3 C         -24.3302   -3.1828  -31.0253 C.3     1  UNL1       -0.0626
      4 C         -22.8337   -3.6668  -29.0412 C.3     1  UNL1       -0.0236
      5 C         -21.4735   -4.2839  -28.6481 C.3     1  UNL1        0.0999
      6 N         -21.2048   -5.4382  -29.5096 N.am    1  UNL1       -0.2988
      7 C         -20.0000   -6.0052  -29.6626 C.2     1  UNL1        0.2610
      8 O         -18.9838   -5.5647  -29.1254 O.2     1  UNL1       -0.2686
      9 C         -19.9400   -7.1783  -30.5543 C.ar    1  UNL1        0.1028
     10 C         -20.8860   -7.9775  -31.1482 C.ar    1  UNL1       -0.0242
     11 C         -20.1791   -8.9484  -31.9406 C.ar    1  UNL1        0.0004
     12 C         -20.5579  -10.0135  -32.7900 C.ar    1  UNL1       -0.0526
     13 C         -19.5909  -10.7862  -33.4665 C.ar    1  UNL1       -0.0611
     14 C         -18.2180  -10.5127  -33.3055 C.ar    1  UNL1       -0.0598
     15 C         -17.8095   -9.4675  -32.4582 C.ar    1  UNL1       -0.0378
     16 C         -18.7841   -8.7076  -31.7886 C.ar    1  UNL1        0.0470
     17 N         -18.6913   -7.6464  -30.9190 N.ar    1  UNL1       -0.3506
     18 C         -21.4936   -4.7634  -27.1862 C.2     1  UNL1        0.2339
     19 O         -21.9174   -5.8907  -26.9243 O.2     1  UNL1       -0.2738
     20 N         -20.9967   -3.9394  -26.2458 N.am    1  UNL1       -0.3037
     21 C         -20.7210   -4.3487  -24.8601 C.3     1  UNL1        0.0888
     22 C         -19.1974   -4.2123  -24.6044 C.3     1  UNL1       -0.0160
     23 C         -18.3610   -5.2444  -25.4021 C.3     1  UNL1        0.0390
     24 C         -18.6816   -6.7103  -25.0648 C.3     1  UNL1       -0.0262
     25 C         -17.3377   -7.4483  -25.0353 C.3     1  UNL1        0.0123
     26 N         -16.3558   -6.3929  -24.9336 N.am    1  UNL1       -0.3151
     27 C         -16.8607   -5.1820  -25.1465 C.2     1  UNL1        0.2162
     28 O         -16.2049   -4.1489  -25.1824 O.2     1  UNL1       -0.2755
     29 C         -21.5868   -3.5648  -23.8441 C.2     1  UNL1        0.2079
     30 O         -21.1171   -3.0105  -22.8501 O.2     1  UNL1       -0.2879
     31 C         -23.0567   -3.4930  -24.0965 C.ar    1  UNL1        0.1465
     32 N         -23.8660   -2.4356  -23.9132 N.ar    1  UNL1       -0.2360
     33 C         -25.1586   -2.7532  -24.3438 C.ar    1  UNL1        0.0790
     34 C         -26.2905   -1.9089  -24.4195 C.ar    1  UNL1       -0.0352
     35 C         -27.5053   -2.3813  -24.9596 C.ar    1  UNL1       -0.0597
     36 C         -27.6478   -3.7073  -25.3840 C.ar    1  UNL1       -0.0606
     37 C         -26.5557   -4.5753  -25.2905 C.ar    1  UNL1       -0.0459
     38 C         -25.3330   -4.0922  -24.8000 C.ar    1  UNL1        0.0396
     39 S         -23.8375   -4.9669  -24.6691 S.2     1  UNL1       -0.0643
     40 H         -21.8997   -1.6841  -31.7420 H       1  UNL1        0.0232
     41 H         -23.0822   -0.9914  -30.6392 H       1  UNL1        0.0232
     42 H         -21.5619   -1.5252  -30.0283 H       1  UNL1        0.0232
     43 H         -22.3476   -3.8746  -31.1442 H       1  UNL1        0.0296
     44 H         -24.8351   -4.1329  -30.8443 H       1  UNL1        0.0232
     45 H         -24.8577   -2.3882  -30.5058 H       1  UNL1        0.0232
     46 H         -24.3728   -2.9732  -32.0952 H       1  UNL1        0.0232
     47 H         -23.6123   -4.4107  -28.8629 H       1  UNL1        0.0290
     48 H         -23.0681   -2.8379  -28.3756 H       1  UNL1        0.0290
     49 H         -20.6913   -3.5415  -28.7777 H       1  UNL1        0.0595
     50 H         -21.9995   -5.8659  -29.9651 H       1  UNL1        0.1498
     51 H         -21.9587   -7.8943  -31.0696 H       1  UNL1        0.0646
     52 H         -21.6068  -10.2302  -32.9276 H       1  UNL1        0.0624
     53 H         -19.9056  -11.5914  -34.1144 H       1  UNL1        0.0618
     54 H         -17.4811  -11.1049  -33.8282 H       1  UNL1        0.0618
     55 H         -16.7599   -9.2492  -32.3236 H       1  UNL1        0.0638
     56 H         -17.8370   -7.1859  -30.6291 H       1  UNL1        0.1660
     57 H         -20.6859   -3.0197  -26.5285 H       1  UNL1        0.1495
     58 H         -20.9750   -5.3974  -24.7137 H       1  UNL1        0.0582
     59 H         -18.9887   -4.3400  -23.5435 H       1  UNL1        0.0295
     60 H         -18.8678   -3.2026  -24.8540 H       1  UNL1        0.0295
     61 H         -18.4946   -5.0826  -26.4720 H       1  UNL1        0.0395
     62 H         -19.3727   -7.1552  -25.7824 H       1  UNL1        0.0288
     63 H         -19.1456   -6.7796  -24.0824 H       1  UNL1        0.0288
     64 H         -17.1683   -8.0037  -25.9595 H       1  UNL1        0.0462
     65 H         -17.2666   -8.1396  -24.1946 H       1  UNL1        0.0462
     66 H         -15.3686   -6.5795  -24.8077 H       1  UNL1        0.1487
     67 H         -26.2292   -0.8843  -24.0943 H       1  UNL1        0.0639
     68 H         -28.3673   -1.7460  -25.0302 H       1  UNL1        0.0618
     69 H         -28.5916   -4.0523  -25.7809 H       1  UNL1        0.0618
     70 H         -26.6453   -5.5998  -25.6221 H       1  UNL1        0.0629
@<TRIPOS>BOND
     1     1     2    1
     2     1    40    1
     3     1    41    1
     4     1    42    1
     5     2     3    1
     6     2     4    1
     7     2    43    1
     8     3    44    1
     9     3    45    1
    10     3    46    1
    11     4     5    1
    12     4    47    1
    13     4    48    1
    14     5     6    1
    15     5    18    1
    16     5    49    1
    17     6     7   am
    18     6    50    1
    19     7     8    2
    20     7     9    1
    21     9    17   ar
    22     9    10   ar
    23    10    11   ar
    24    10    51    1
    25    11    16   ar
    26    11    12   ar
    27    12    13   ar
    28    12    52    1
    29    13    14   ar
    30    13    53    1
    31    14    15   ar
    32    14    54    1
    33    15    16   ar
    34    15    55    1
    35    16    17   ar
    36    17    56    1
    37    18    19    2
    38    18    20   am
    39    20    21    1
    40    20    57    1
    41    21    22    1
    42    21    29    1
    43    21    58    1
    44    22    23    1
    45    22    59    1
    46    22    60    1
    47    23    27    1
    48    23    24    1
    49    23    61    1
    50    24    25    1
    51    24    62    1
    52    24    63    1
    53    25    26    1
    54    25    64    1
    55    25    65    1
    56    26    27   am
    57    26    66    1
    58    27    28    2
    59    29    30    2
    60    29    31    1
    61    31    39   ar
    62    31    32   ar
    63    32    33   ar
    64    33    38   ar
    65    33    34   ar
    66    34    35   ar
    67    34    67    1
    68    35    36   ar
    69    35    68    1
    70    36    37   ar
    71    36    69    1
    72    37    38   ar
    73    37    70    1
    74    38    39   ar
