
                    3D
 Schrodinger Suite 2019-4.
 70 74  0  0  1  0            999 V2000
  -22.3290   -1.7724  -30.7437 C   0  0  0  0  0  0
  -22.9010   -3.1807  -30.5151 C   0  0  0  0  0  0
  -24.3302   -3.1828  -31.0253 C   0  0  0  0  0  0
  -22.8337   -3.6668  -29.0412 C   0  0  0  0  0  0
  -21.4735   -4.2839  -28.6481 C   0  0  2  0  0  0
  -21.2048   -5.4382  -29.5096 N   0  0  0  0  0  0
  -20.0000   -6.0052  -29.6626 C   0  0  0  0  0  0
  -18.9838   -5.5647  -29.1254 O   0  0  0  0  0  0
  -19.9400   -7.1783  -30.5543 C   0  0  0  0  0  0
  -20.8860   -7.9775  -31.1482 C   0  0  0  0  0  0
  -20.1791   -8.9484  -31.9406 C   0  0  0  0  0  0
  -20.5579  -10.0135  -32.7900 C   0  0  0  0  0  0
  -19.5909  -10.7862  -33.4665 C   0  0  0  0  0  0
  -18.2180  -10.5127  -33.3055 C   0  0  0  0  0  0
  -17.8095   -9.4675  -32.4582 C   0  0  0  0  0  0
  -18.7841   -8.7076  -31.7886 C   0  0  0  0  0  0
  -18.6913   -7.6464  -30.9190 N   0  0  0  0  0  0
  -21.4936   -4.7634  -27.1862 C   0  0  0  0  0  0
  -21.9174   -5.8907  -26.9243 O   0  0  0  0  0  0
  -20.9967   -3.9394  -26.2458 N   0  0  0  0  0  0
  -20.7210   -4.3487  -24.8601 C   0  0  1  0  0  0
  -19.1974   -4.2123  -24.6044 C   0  0  0  0  0  0
  -18.3610   -5.2444  -25.4021 C   0  0  2  0  0  0
  -18.6816   -6.7103  -25.0648 C   0  0  0  0  0  0
  -17.3377   -7.4483  -25.0353 C   0  0  0  0  0  0
  -16.3558   -6.3929  -24.9336 N   0  0  0  0  0  0
  -16.8607   -5.1820  -25.1465 C   0  0  0  0  0  0
  -16.2049   -4.1489  -25.1824 O   0  0  0  0  0  0
  -21.5868   -3.5648  -23.8441 C   0  0  0  0  0  0
  -21.1171   -3.0105  -22.8501 O   0  0  0  0  0  0
  -23.0567   -3.4930  -24.0965 C   0  0  0  0  0  0
  -23.8660   -2.4356  -23.9132 N   0  0  0  0  0  0
  -25.1586   -2.7532  -24.3438 C   0  0  0  0  0  0
  -26.2905   -1.9089  -24.4195 C   0  0  0  0  0  0
  -27.5053   -2.3813  -24.9596 C   0  0  0  0  0  0
  -27.6478   -3.7073  -25.3840 C   0  0  0  0  0  0
  -26.5557   -4.5753  -25.2905 C   0  0  0  0  0  0
  -25.3330   -4.0922  -24.8000 C   0  0  0  0  0  0
  -23.8375   -4.9669  -24.6691 S   0  0  0  0  0  0
  -21.8997   -1.6841  -31.7420 H   0  0  0  0  0  0
  -23.0822   -0.9914  -30.6392 H   0  0  0  0  0  0
  -21.5619   -1.5252  -30.0283 H   0  0  0  0  0  0
  -22.3476   -3.8746  -31.1442 H   0  0  0  0  0  0
  -24.8351   -4.1329  -30.8443 H   0  0  0  0  0  0
  -24.8577   -2.3882  -30.5058 H   0  0  0  0  0  0
  -24.3728   -2.9732  -32.0952 H   0  0  0  0  0  0
  -23.6123   -4.4107  -28.8629 H   0  0  0  0  0  0
  -23.0681   -2.8379  -28.3756 H   0  0  0  0  0  0
  -20.6913   -3.5415  -28.7777 H   0  0  0  0  0  0
  -21.9995   -5.8659  -29.9651 H   0  0  0  0  0  0
  -21.9587   -7.8943  -31.0696 H   0  0  0  0  0  0
  -21.6068  -10.2302  -32.9276 H   0  0  0  0  0  0
  -19.9056  -11.5914  -34.1144 H   0  0  0  0  0  0
  -17.4811  -11.1049  -33.8282 H   0  0  0  0  0  0
  -16.7599   -9.2492  -32.3236 H   0  0  0  0  0  0
  -17.8370   -7.1859  -30.6291 H   0  0  0  0  0  0
  -20.6859   -3.0197  -26.5285 H   0  0  0  0  0  0
  -20.9750   -5.3974  -24.7137 H   0  0  0  0  0  0
  -18.9887   -4.3400  -23.5435 H   0  0  0  0  0  0
  -18.8678   -3.2026  -24.8540 H   0  0  0  0  0  0
  -18.4946   -5.0826  -26.4720 H   0  0  0  0  0  0
  -19.3727   -7.1552  -25.7824 H   0  0  0  0  0  0
  -19.1456   -6.7796  -24.0824 H   0  0  0  0  0  0
  -17.1683   -8.0037  -25.9595 H   0  0  0  0  0  0
  -17.2666   -8.1396  -24.1946 H   0  0  0  0  0  0
  -15.3686   -6.5795  -24.8077 H   0  0  0  0  0  0
  -26.2292   -0.8843  -24.0943 H   0  0  0  0  0  0
  -28.3673   -1.7460  -25.0302 H   0  0  0  0  0  0
  -28.5916   -4.0523  -25.7809 H   0  0  0  0  0  0
  -26.6453   -5.5998  -25.6221 H   0  0  0  0  0  0
  1  2  1  0  0  0
  1 40  1  0  0  0
  1 41  1  0  0  0
  1 42  1  0  0  0
  2  3  1  0  0  0
  2  4  1  0  0  0
  2 43  1  0  0  0
  3 44  1  0  0  0
  3 45  1  0  0  0
  3 46  1  0  0  0
  4  5  1  0  0  0
  4 47  1  0  0  0
  4 48  1  0  0  0
  5  6  1  0  0  0
  5 18  1  0  0  0
  5 49  1  0  0  0
  6  7  1  0  0  0
  6 50  1  0  0  0
  7  8  2  0  0  0
  7  9  1  0  0  0
  9 17  1  0  0  0
  9 10  2  0  0  0
 10 11  1  0  0  0
 10 51  1  0  0  0
 11 16  1  0  0  0
 11 12  2  0  0  0
 12 13  1  0  0  0
 12 52  1  0  0  0
 13 14  2  0  0  0
 13 53  1  0  0  0
 14 15  1  0  0  0
 14 54  1  0  0  0
 15 16  2  0  0  0
 15 55  1  0  0  0
 16 17  1  0  0  0
 17 56  1  0  0  0
 18 19  2  0  0  0
 18 20  1  0  0  0
 20 21  1  0  0  0
 20 57  1  0  0  0
 21 22  1  0  0  0
 21 29  1  0  0  0
 21 58  1  0  0  0
 22 23  1  0  0  0
 22 59  1  0  0  0
 22 60  1  0  0  0
 23 27  1  0  0  0
 23 24  1  0  0  0
 23 61  1  0  0  0
 24 25  1  0  0  0
 24 62  1  0  0  0
 24 63  1  0  0  0
 25 26  1  0  0  0
 25 64  1  0  0  0
 25 65  1  0  0  0
 26 27  1  0  0  0
 26 66  1  0  0  0
 27 28  2  0  0  0
 29 30  2  0  0  0
 29 31  1  0  0  0
 31 39  1  0  0  0
 31 32  2  0  0  0
 32 33  1  0  0  0
 33 38  2  0  0  0
 33 34  1  0  0  0
 34 35  2  0  0  0
 34 67  1  0  0  0
 35 36  1  0  0  0
 35 68  1  0  0  0
 36 37  2  0  0  0
 36 69  1  0  0  0
 37 38  1  0  0  0
 37 70  1  0  0  0
 38 39  1  0  0  0
M  END
$$$$
