@<TRIPOS>MOLECULE
*****
 77 81 0 0 0
SMALL
GASTEIGER
****
Schrodinger Suite 2019-4.
@<TRIPOS>ATOM
      1 C         -21.1529  -12.3682  -34.3074 C.3     1  UNL1        0.0788
      2 O         -19.8077  -11.9156  -34.2518 O.3     1  UNL1       -0.4951
      3 C         -19.5155  -10.8373  -33.4450 C.ar    1  UNL1        0.1208
      4 C         -18.1561  -10.4813  -33.3271 C.ar    1  UNL1       -0.0180
      5 C         -17.7672   -9.4035  -32.5130 C.ar    1  UNL1       -0.0343
      6 C         -18.7508   -8.6802  -31.8222 C.ar    1  UNL1        0.0475
      7 N         -18.6802   -7.6030  -30.9721 N.ar    1  UNL1       -0.3504
      8 C         -19.9347   -7.1933  -30.5621 C.ar    1  UNL1        0.1057
      9 C         -20.0088   -6.0186  -29.6669 C.2     1  UNL1        0.2612
     10 O         -18.9937   -5.5298  -29.1734 O.2     1  UNL1       -0.2686
     11 N         -21.2324   -5.5195  -29.4413 N.am    1  UNL1       -0.2988
     12 C         -21.5432   -4.4180  -28.5295 C.3     1  UNL1        0.0999
     13 C         -23.0122   -4.0057  -28.7261 C.3     1  UNL1       -0.0236
     14 C         -23.3836   -3.5813  -30.1594 C.3     1  UNL1       -0.0446
     15 C         -22.9549   -2.1466  -30.4939 C.3     1  UNL1       -0.0626
     16 C         -24.8823   -3.7225  -30.3473 C.3     1  UNL1       -0.0626
     17 C         -21.3828   -4.9028  -27.0840 C.2     1  UNL1        0.2339
     18 O         -21.6515   -6.0718  -26.8011 O.2     1  UNL1       -0.2738
     19 N         -20.9716   -4.0115  -26.1685 N.am    1  UNL1       -0.3037
     20 C         -20.6785   -4.3635  -24.7750 C.3     1  UNL1        0.0888
     21 C         -19.1534   -4.2189  -24.5443 C.3     1  UNL1       -0.0160
     22 C         -18.3279   -5.2529  -25.3536 C.3     1  UNL1        0.0390
     23 C         -18.6419   -6.7201  -25.0155 C.3     1  UNL1       -0.0262
     24 C         -17.2981   -7.4571  -25.0125 C.3     1  UNL1        0.0123
     25 N         -16.3165   -6.4010  -24.9207 N.am    1  UNL1       -0.3151
     26 C         -16.8251   -5.1900  -25.1213 C.2     1  UNL1        0.2162
     27 O         -16.1710   -4.1564  -25.1671 O.2     1  UNL1       -0.2755
     28 C         -21.5591   -3.5588  -23.7911 C.2     1  UNL1        0.2079
     29 O         -21.1011   -2.9820  -22.8062 O.2     1  UNL1       -0.2879
     30 C         -23.0287   -3.4946  -24.0617 C.ar    1  UNL1        0.1465
     31 N         -23.8481   -2.4492  -23.8544 N.ar    1  UNL1       -0.2360
     32 C         -25.1361   -2.7627  -24.3017 C.ar    1  UNL1        0.0790
     33 C         -26.2719   -1.9221  -24.3599 C.ar    1  UNL1       -0.0352
     34 C         -27.4808   -2.3830  -24.9230 C.ar    1  UNL1       -0.0597
     35 C         -27.6152   -3.6996  -25.3798 C.ar    1  UNL1       -0.0606
     36 C         -26.5187   -4.5649  -25.3045 C.ar    1  UNL1       -0.0459
     37 C         -25.2997   -4.0889  -24.7976 C.ar    1  UNL1        0.0396
     38 S         -23.7959   -4.9545  -24.6935 S.2     1  UNL1       -0.0643
     39 C         -20.8635   -8.0509  -31.1097 C.ar    1  UNL1       -0.0128
     40 C         -22.3440   -8.0223  -30.9067 C.3     1  UNL1       -0.0370
     41 C         -20.1344   -8.9898  -31.9218 C.ar    1  UNL1        0.0068
     42 C         -20.4926  -10.0842  -32.7435 C.ar    1  UNL1       -0.0105
     43 H         -21.2076  -13.2512  -34.9440 H       1  UNL1        0.0660
     44 H         -21.5194  -12.6522  -33.3198 H       1  UNL1        0.0660
     45 H         -21.8137  -11.6143  -34.7351 H       1  UNL1        0.0660
     46 H         -17.4048  -11.0449  -33.8612 H       1  UNL1        0.0655
     47 H         -16.7245   -9.1355  -32.4205 H       1  UNL1        0.0639
     48 H         -17.8384   -7.0986  -30.7195 H       1  UNL1        0.1660
     49 H         -22.0169   -5.9813  -29.8781 H       1  UNL1        0.1498
     50 H         -20.8830   -3.5740  -28.7247 H       1  UNL1        0.0595
     51 H         -23.2679   -3.2039  -28.0324 H       1  UNL1        0.0290
     52 H         -23.6433   -4.8486  -28.4357 H       1  UNL1        0.0290
     53 H         -22.9193   -4.2513  -30.8825 H       1  UNL1        0.0296
     54 H         -23.2294   -1.8825  -31.5151 H       1  UNL1        0.0232
     55 H         -23.4221   -1.4221  -29.8273 H       1  UNL1        0.0232
     56 H         -21.8826   -2.0231  -30.4046 H       1  UNL1        0.0232
     57 H         -25.1395   -3.4401  -31.3643 H       1  UNL1        0.0232
     58 H         -25.2211   -4.7447  -30.1971 H       1  UNL1        0.0232
     59 H         -25.4105   -3.0873  -29.6385 H       1  UNL1        0.0232
     60 H         -20.7896   -3.0615  -26.4610 H       1  UNL1        0.1495
     61 H         -20.9246   -5.4064  -24.5806 H       1  UNL1        0.0582
     62 H         -18.9325   -4.3368  -23.4856 H       1  UNL1        0.0295
     63 H         -18.8296   -3.2108  -24.8058 H       1  UNL1        0.0295
     64 H         -18.4732   -5.0914  -26.4223 H       1  UNL1        0.0395
     65 H         -19.3436   -7.1666  -25.7212 H       1  UNL1        0.0288
     66 H         -19.0878   -6.7930  -24.0256 H       1  UNL1        0.0288
     67 H         -17.1430   -8.0066  -25.9423 H       1  UNL1        0.0462
     68 H         -17.2127   -8.1531  -24.1773 H       1  UNL1        0.0462
     69 H         -15.3269   -6.5871  -24.8138 H       1  UNL1        0.1487
     70 H         -26.2171   -0.9074  -24.0038 H       1  UNL1        0.0639
     71 H         -28.3420   -1.7447  -24.9859 H       1  UNL1        0.0618
     72 H         -28.5554   -4.0389  -25.7900 H       1  UNL1        0.0618
     73 H         -26.6009   -5.5802  -25.6652 H       1  UNL1        0.0629
     74 H         -22.8307   -8.8916  -31.3478 H       1  UNL1        0.0278
     75 H         -22.5810   -8.0247  -29.8434 H       1  UNL1        0.0278
     76 H         -22.7887   -7.1326  -31.3534 H       1  UNL1        0.0278
     77 H         -21.5416  -10.3240  -32.8208 H       1  UNL1        0.0661
@<TRIPOS>BOND
     1     1     2    1
     2     1    43    1
     3     1    44    1
     4     1    45    1
     5     2     3    1
     6     3    42   ar
     7     3     4   ar
     8     4     5   ar
     9     4    46    1
    10     5     6   ar
    11     5    47    1
    12     6    41   ar
    13     6     7   ar
    14     7     8   ar
    15     7    48    1
    16     8     9    1
    17     8    39   ar
    18     9    10    2
    19     9    11   am
    20    11    12    1
    21    11    49    1
    22    12    13    1
    23    12    17    1
    24    12    50    1
    25    13    14    1
    26    13    51    1
    27    13    52    1
    28    14    15    1
    29    14    16    1
    30    14    53    1
    31    15    54    1
    32    15    55    1
    33    15    56    1
    34    16    57    1
    35    16    58    1
    36    16    59    1
    37    17    18    2
    38    17    19   am
    39    19    20    1
    40    19    60    1
    41    20    21    1
    42    20    28    1
    43    20    61    1
    44    21    22    1
    45    21    62    1
    46    21    63    1
    47    22    26    1
    48    22    23    1
    49    22    64    1
    50    23    24    1
    51    23    65    1
    52    23    66    1
    53    24    25    1
    54    24    67    1
    55    24    68    1
    56    25    26   am
    57    25    69    1
    58    26    27    2
    59    28    29    2
    60    28    30    1
    61    30    38   ar
    62    30    31   ar
    63    31    32   ar
    64    32    37   ar
    65    32    33   ar
    66    33    34   ar
    67    33    70    1
    68    34    35   ar
    69    34    71    1
    70    35    36   ar
    71    35    72    1
    72    36    37   ar
    73    36    73    1
    74    37    38   ar
    75    39    40    1
    76    39    41   ar
    77    40    74    1
    78    40    75    1
    79    40    76    1
    80    41    42   ar
    81    42    77    1
