
                    3D
 Schrodinger Suite 2019-4.
 77 81  0  0  1  0            999 V2000
  -21.1529  -12.3682  -34.3074 C   0  0  0  0  0  0
  -19.8077  -11.9156  -34.2518 O   0  0  0  0  0  0
  -19.5155  -10.8373  -33.4450 C   0  0  0  0  0  0
  -18.1561  -10.4813  -33.3271 C   0  0  0  0  0  0
  -17.7672   -9.4035  -32.5130 C   0  0  0  0  0  0
  -18.7508   -8.6802  -31.8222 C   0  0  0  0  0  0
  -18.6802   -7.6030  -30.9721 N   0  0  0  0  0  0
  -19.9347   -7.1933  -30.5621 C   0  0  0  0  0  0
  -20.0088   -6.0186  -29.6669 C   0  0  0  0  0  0
  -18.9937   -5.5298  -29.1734 O   0  0  0  0  0  0
  -21.2324   -5.5195  -29.4413 N   0  0  0  0  0  0
  -21.5432   -4.4180  -28.5295 C   0  0  1  0  0  0
  -23.0122   -4.0057  -28.7261 C   0  0  0  0  0  0
  -23.3836   -3.5813  -30.1594 C   0  0  0  0  0  0
  -22.9549   -2.1466  -30.4939 C   0  0  0  0  0  0
  -24.8823   -3.7225  -30.3473 C   0  0  0  0  0  0
  -21.3828   -4.9028  -27.0840 C   0  0  0  0  0  0
  -21.6515   -6.0718  -26.8011 O   0  0  0  0  0  0
  -20.9716   -4.0115  -26.1685 N   0  0  0  0  0  0
  -20.6785   -4.3635  -24.7750 C   0  0  1  0  0  0
  -19.1534   -4.2189  -24.5443 C   0  0  0  0  0  0
  -18.3279   -5.2529  -25.3536 C   0  0  2  0  0  0
  -18.6419   -6.7201  -25.0155 C   0  0  0  0  0  0
  -17.2981   -7.4571  -25.0125 C   0  0  0  0  0  0
  -16.3165   -6.4010  -24.9207 N   0  0  0  0  0  0
  -16.8251   -5.1900  -25.1213 C   0  0  0  0  0  0
  -16.1710   -4.1564  -25.1671 O   0  0  0  0  0  0
  -21.5591   -3.5588  -23.7911 C   0  0  0  0  0  0
  -21.1011   -2.9820  -22.8062 O   0  0  0  0  0  0
  -23.0287   -3.4946  -24.0617 C   0  0  0  0  0  0
  -23.8481   -2.4492  -23.8544 N   0  0  0  0  0  0
  -25.1361   -2.7627  -24.3017 C   0  0  0  0  0  0
  -26.2719   -1.9221  -24.3599 C   0  0  0  0  0  0
  -27.4808   -2.3830  -24.9230 C   0  0  0  0  0  0
  -27.6152   -3.6996  -25.3798 C   0  0  0  0  0  0
  -26.5187   -4.5649  -25.3045 C   0  0  0  0  0  0
  -25.2997   -4.0889  -24.7976 C   0  0  0  0  0  0
  -23.7959   -4.9545  -24.6935 S   0  0  0  0  0  0
  -20.8635   -8.0509  -31.1097 C   0  0  0  0  0  0
  -22.3440   -8.0223  -30.9067 C   0  0  0  0  0  0
  -20.1344   -8.9898  -31.9218 C   0  0  0  0  0  0
  -20.4926  -10.0842  -32.7435 C   0  0  0  0  0  0
  -21.2076  -13.2512  -34.9440 H   0  0  0  0  0  0
  -21.5194  -12.6522  -33.3198 H   0  0  0  0  0  0
  -21.8137  -11.6143  -34.7351 H   0  0  0  0  0  0
  -17.4048  -11.0449  -33.8612 H   0  0  0  0  0  0
  -16.7245   -9.1355  -32.4205 H   0  0  0  0  0  0
  -17.8384   -7.0986  -30.7195 H   0  0  0  0  0  0
  -22.0169   -5.9813  -29.8781 H   0  0  0  0  0  0
  -20.8830   -3.5740  -28.7247 H   0  0  0  0  0  0
  -23.2679   -3.2039  -28.0324 H   0  0  0  0  0  0
  -23.6433   -4.8486  -28.4357 H   0  0  0  0  0  0
  -22.9193   -4.2513  -30.8825 H   0  0  0  0  0  0
  -23.2294   -1.8825  -31.5151 H   0  0  0  0  0  0
  -23.4221   -1.4221  -29.8273 H   0  0  0  0  0  0
  -21.8826   -2.0231  -30.4046 H   0  0  0  0  0  0
  -25.1395   -3.4401  -31.3643 H   0  0  0  0  0  0
  -25.2211   -4.7447  -30.1971 H   0  0  0  0  0  0
  -25.4105   -3.0873  -29.6385 H   0  0  0  0  0  0
  -20.7896   -3.0615  -26.4610 H   0  0  0  0  0  0
  -20.9246   -5.4064  -24.5806 H   0  0  0  0  0  0
  -18.9325   -4.3368  -23.4856 H   0  0  0  0  0  0
  -18.8296   -3.2108  -24.8058 H   0  0  0  0  0  0
  -18.4732   -5.0914  -26.4223 H   0  0  0  0  0  0
  -19.3436   -7.1666  -25.7212 H   0  0  0  0  0  0
  -19.0878   -6.7930  -24.0256 H   0  0  0  0  0  0
  -17.1430   -8.0066  -25.9423 H   0  0  0  0  0  0
  -17.2127   -8.1531  -24.1773 H   0  0  0  0  0  0
  -15.3269   -6.5871  -24.8138 H   0  0  0  0  0  0
  -26.2171   -0.9074  -24.0038 H   0  0  0  0  0  0
  -28.3420   -1.7447  -24.9859 H   0  0  0  0  0  0
  -28.5554   -4.0389  -25.7900 H   0  0  0  0  0  0
  -26.6009   -5.5802  -25.6652 H   0  0  0  0  0  0
  -22.8307   -8.8916  -31.3478 H   0  0  0  0  0  0
  -22.5810   -8.0247  -29.8434 H   0  0  0  0  0  0
  -22.7887   -7.1326  -31.3534 H   0  0  0  0  0  0
  -21.5416  -10.3240  -32.8208 H   0  0  0  0  0  0
  1  2  1  0  0  0
  1 43  1  0  0  0
  1 44  1  0  0  0
  1 45  1  0  0  0
  2  3  1  0  0  0
  3 42  1  0  0  0
  3  4  2  0  0  0
  4  5  1  0  0  0
  4 46  1  0  0  0
  5  6  2  0  0  0
  5 47  1  0  0  0
  6 41  1  0  0  0
  6  7  1  0  0  0
  7  8  1  0  0  0
  7 48  1  0  0  0
  8  9  1  0  0  0
  8 39  2  0  0  0
  9 10  2  0  0  0
  9 11  1  0  0  0
 11 12  1  0  0  0
 11 49  1  0  0  0
 12 13  1  0  0  0
 12 17  1  0  0  0
 12 50  1  0  0  0
 13 14  1  0  0  0
 13 51  1  0  0  0
 13 52  1  0  0  0
 14 15  1  0  0  0
 14 16  1  0  0  0
 14 53  1  0  0  0
 15 54  1  0  0  0
 15 55  1  0  0  0
 15 56  1  0  0  0
 16 57  1  0  0  0
 16 58  1  0  0  0
 16 59  1  0  0  0
 17 18  2  0  0  0
 17 19  1  0  0  0
 19 20  1  0  0  0
 19 60  1  0  0  0
 20 21  1  0  0  0
 20 28  1  0  0  0
 20 61  1  0  0  0
 21 22  1  0  0  0
 21 62  1  0  0  0
 21 63  1  0  0  0
 22 26  1  0  0  0
 22 23  1  0  0  0
 22 64  1  0  0  0
 23 24  1  0  0  0
 23 65  1  0  0  0
 23 66  1  0  0  0
 24 25  1  0  0  0
 24 67  1  0  0  0
 24 68  1  0  0  0
 25 26  1  0  0  0
 25 69  1  0  0  0
 26 27  2  0  0  0
 28 29  2  0  0  0
 28 30  1  0  0  0
 30 38  1  0  0  0
 30 31  2  0  0  0
 31 32  1  0  0  0
 32 37  2  0  0  0
 32 33  1  0  0  0
 33 34  2  0  0  0
 33 70  1  0  0  0
 34 35  1  0  0  0
 34 71  1  0  0  0
 35 36  2  0  0  0
 35 72  1  0  0  0
 36 37  1  0  0  0
 36 73  1  0  0  0
 37 38  1  0  0  0
 39 40  1  0  0  0
 39 41  1  0  0  0
 40 74  1  0  0  0
 40 75  1  0  0  0
 40 76  1  0  0  0
 41 42  2  0  0  0
 42 77  1  0  0  0
M  END
$$$$
