@<TRIPOS>MOLECULE
*****
 70 73 0 0 0
SMALL
GASTEIGER
****
Schrodinger Suite 2019-4.
@<TRIPOS>ATOM
      1 C         -24.6339   -2.8759  -31.6990 C.3     1  UNL1       -0.0650
      2 C         -23.2548   -3.1891  -31.0943 C.3     1  UNL1       -0.0512
      3 C         -23.3157   -3.7412  -29.6493 C.3     1  UNL1       -0.0170
      4 C         -23.9568   -2.6870  -28.7118 C.3     1  UNL1       -0.0603
      5 C         -21.9141   -4.2725  -29.1759 C.3     1  UNL1        0.1050
      6 N         -21.5360   -5.4763  -29.9407 N.am    1  UNL1       -0.2696
      7 C         -20.2692   -6.0292  -29.8049 C.2     1  UNL1        0.4012
      8 O         -19.2847   -5.4757  -29.3140 O.2     1  UNL1       -0.2265
      9 O         -20.3044   -7.2931  -30.2561 O.3     1  UNL1       -0.4456
     10 C         -19.1102   -8.0153  -30.5521 C.3     1  UNL1        0.1191
     11 C         -18.8886   -8.0946  -32.0580 C.ar    1  UNL1       -0.0103
     12 C         -18.0913   -9.1158  -32.5815 C.ar    1  UNL1       -0.0554
     13 C         -17.8941   -9.2114  -33.9574 C.ar    1  UNL1       -0.0614
     14 C         -18.4911   -8.2812  -34.8062 C.ar    1  UNL1       -0.0617
     15 C         -19.2601   -7.2446  -34.2840 C.ar    1  UNL1       -0.0614
     16 C         -19.4613   -7.1530  -32.9188 C.ar    1  UNL1       -0.0554
     17 C         -21.9962   -4.6899  -27.6877 C.2     1  UNL1        0.2343
     18 O         -22.7554   -5.6070  -27.3850 O.2     1  UNL1       -0.2738
     19 N         -21.1642   -4.0856  -26.8223 N.am    1  UNL1       -0.3037
     20 C         -20.9550   -4.5422  -25.4401 C.3     1  UNL1        0.0888
     21 C         -21.7422   -3.7215  -24.3873 C.3     1  UNL1       -0.0160
     22 C         -23.2730   -3.6181  -24.6172 C.3     1  UNL1        0.0390
     23 C         -23.9291   -2.6392  -23.6707 C.3     1  UNL1       -0.0262
     24 C         -25.3031   -3.2105  -23.4100 C.3     1  UNL1        0.0123
     25 N         -25.1299   -4.6223  -23.6964 N.am    1  UNL1       -0.3151
     26 C         -24.0522   -4.9337  -24.4286 C.2     1  UNL1        0.2162
     27 O         -23.7811   -6.0388  -24.8863 O.2     1  UNL1       -0.2755
     28 C         -19.4432   -4.4499  -25.2430 C.2     1  UNL1        0.2079
     29 O         -18.9014   -3.3584  -25.0435 O.2     1  UNL1       -0.2879
     30 C         -18.6449   -5.6763  -25.3116 C.ar    1  UNL1        0.1465
     31 N         -19.1129   -6.8977  -25.3384 N.ar    1  UNL1       -0.2360
     32 C         -18.1218   -7.8252  -25.3403 C.ar    1  UNL1        0.0790
     33 C         -18.3253   -9.2129  -25.3526 C.ar    1  UNL1       -0.0352
     34 C         -17.2049  -10.0451  -25.3369 C.ar    1  UNL1       -0.0597
     35 C         -15.9153   -9.5190  -25.3126 C.ar    1  UNL1       -0.0606
     36 C         -15.6907   -8.1424  -25.3108 C.ar    1  UNL1       -0.0459
     37 C         -16.8061   -7.2973  -25.3181 C.ar    1  UNL1        0.0396
     38 S         -16.8915   -5.5435  -25.3119 S.2     1  UNL1       -0.0643
     39 H         -24.6502   -3.0742  -32.7673 H       1  UNL1        0.0230
     40 H         -25.4262   -3.4737  -31.2480 H       1  UNL1        0.0230
     41 H         -24.8913   -1.8254  -31.5626 H       1  UNL1        0.0230
     42 H         -22.6460   -2.2848  -31.1064 H       1  UNL1        0.0266
     43 H         -22.7461   -3.8970  -31.7484 H       1  UNL1        0.0266
     44 H         -24.0015   -4.5916  -29.6681 H       1  UNL1        0.0321
     45 H         -24.2320   -3.1182  -27.7509 H       1  UNL1        0.0233
     46 H         -23.2739   -1.8597  -28.5249 H       1  UNL1        0.0233
     47 H         -24.8770   -2.2751  -29.1226 H       1  UNL1        0.0233
     48 H         -21.1683   -3.4844  -29.3112 H       1  UNL1        0.0598
     49 H         -22.2862   -6.0927  -30.2169 H       1  UNL1        0.1528
     50 H         -19.2326   -9.0265  -30.1628 H       1  UNL1        0.0749
     51 H         -18.2258   -7.5894  -30.0756 H       1  UNL1        0.0749
     52 H         -17.6284   -9.8386  -31.9245 H       1  UNL1        0.0621
     53 H         -17.2821  -10.0034  -34.3660 H       1  UNL1        0.0618
     54 H         -18.3428   -8.3489  -35.8731 H       1  UNL1        0.0618
     55 H         -19.7093   -6.4949  -34.9124 H       1  UNL1        0.0618
     56 H         -20.0589   -6.3360  -32.5469 H       1  UNL1        0.0621
     57 H         -20.5984   -3.3054  -27.1310 H       1  UNL1        0.1495
     58 H         -21.2727   -5.5813  -25.3313 H       1  UNL1        0.0582
     59 H         -21.3635   -2.6964  -24.3776 H       1  UNL1        0.0295
     60 H         -21.5447   -4.1212  -23.3910 H       1  UNL1        0.0295
     61 H         -23.4594   -3.2911  -25.6388 H       1  UNL1        0.0395
     62 H         -23.9647   -1.6429  -24.1120 H       1  UNL1        0.0288
     63 H         -23.3807   -2.5733  -22.7276 H       1  UNL1        0.0288
     64 H         -26.0587   -2.7675  -24.0624 H       1  UNL1        0.0462
     65 H         -25.6123   -3.0755  -22.3719 H       1  UNL1        0.0462
     66 H         -25.8420   -5.3091  -23.4928 H       1  UNL1        0.1487
     67 H         -19.3180   -9.6321  -25.3846 H       1  UNL1        0.0639
     68 H         -17.3338  -11.1186  -25.3514 H       1  UNL1        0.0618
     69 H         -15.0672  -10.1891  -25.3228 H       1  UNL1        0.0618
     70 H         -14.6833   -7.7475  -25.3106 H       1  UNL1        0.0629
@<TRIPOS>BOND
     1     1     2    1
     2     1    39    1
     3     1    40    1
     4     1    41    1
     5     2     3    1
     6     2    42    1
     7     2    43    1
     8     3     4    1
     9     3     5    1
    10     3    44    1
    11     4    45    1
    12     4    46    1
    13     4    47    1
    14     5     6    1
    15     5    17    1
    16     5    48    1
    17     6     7   am
    18     6    49    1
    19     7     8    2
    20     7     9    1
    21     9    10    1
    22    10    11    1
    23    10    50    1
    24    10    51    1
    25    11    16   ar
    26    11    12   ar
    27    12    13   ar
    28    12    52    1
    29    13    14   ar
    30    13    53    1
    31    14    15   ar
    32    14    54    1
    33    15    16   ar
    34    15    55    1
    35    16    56    1
    36    17    18    2
    37    17    19   am
    38    19    20    1
    39    19    57    1
    40    20    21    1
    41    20    28    1
    42    20    58    1
    43    21    22    1
    44    21    59    1
    45    21    60    1
    46    22    26    1
    47    22    23    1
    48    22    61    1
    49    23    24    1
    50    23    62    1
    51    23    63    1
    52    24    25    1
    53    24    64    1
    54    24    65    1
    55    25    26   am
    56    25    66    1
    57    26    27    2
    58    28    29    2
    59    28    30    1
    60    30    38   ar
    61    30    31   ar
    62    31    32   ar
    63    32    37   ar
    64    32    33   ar
    65    33    34   ar
    66    33    67    1
    67    34    35   ar
    68    34    68    1
    69    35    36   ar
    70    35    69    1
    71    36    37   ar
    72    36    70    1
    73    37    38   ar
