@<TRIPOS>MOLECULE
*****
 90 93 0 0 0
SMALL
GASTEIGER
****
Schrodinger Suite 2019-4.
@<TRIPOS>ATOM
      1 C         -23.0154   -3.2420  -31.4670 C.3     1  UNL1        0.0790
      2 O         -23.5883   -2.6551  -30.3027 O.3     1  UNL1       -0.4915
      3 C         -24.9567   -2.5202  -30.2524 C.ar    1  UNL1        0.1615
      4 C         -25.7396   -2.1875  -31.3819 C.ar    1  UNL1       -0.0163
      5 C         -27.1382   -2.1591  -31.2979 C.ar    1  UNL1       -0.0581
      6 C         -27.7624   -2.4679  -30.0833 C.ar    1  UNL1       -0.0581
      7 C         -26.9993   -2.7055  -28.9263 C.ar    1  UNL1       -0.0163
      8 C         -25.5862   -2.6956  -29.0021 C.ar    1  UNL1        0.1626
      9 O         -24.7791   -2.8653  -27.9054 O.3     1  UNL1       -0.4791
     10 C         -25.3398   -2.4890  -26.6632 C.3     1  UNL1        0.1653
     11 C         -24.2178   -2.4408  -25.6502 C.2     1  UNL1        0.2513
     12 O         -23.8074   -1.3662  -25.2280 O.2     1  UNL1       -0.2721
     13 N         -23.7658   -3.6260  -25.2247 N.am    1  UNL1       -0.3010
     14 C         -22.8946   -3.8370  -24.0743 C.3     1  UNL1        0.1018
     15 C         -23.3955   -3.0449  -22.8214 C.3     1  UNL1       -0.0197
     16 C         -22.5600   -3.2539  -21.5787 C.3     1  UNL1       -0.0605
     17 C         -24.8612   -3.3753  -22.4859 C.3     1  UNL1       -0.0605
     18 C         -21.4060   -3.8513  -24.4903 C.2     1  UNL1        0.2342
     19 O         -20.5714   -3.1445  -23.9286 O.2     1  UNL1       -0.2738
     20 N         -21.1199   -4.7024  -25.4922 N.am    1  UNL1       -0.3025
     21 C         -19.8829   -4.9724  -26.2336 C.3     1  UNL1        0.0996
     22 C         -18.5764   -4.5714  -25.4991 C.3     1  UNL1       -0.0236
     23 C         -17.2879   -5.2619  -25.9935 C.3     1  UNL1       -0.0446
     24 C         -17.3455   -6.7961  -25.9013 C.3     1  UNL1       -0.0626
     25 C         -16.0804   -4.7636  -25.1978 C.3     1  UNL1       -0.0626
     26 C         -19.9892   -4.5855  -27.7215 C.2     1  UNL1        0.2339
     27 O         -20.7070   -3.6545  -28.0808 O.2     1  UNL1       -0.2738
     28 N         -19.3279   -5.4012  -28.5633 N.am    1  UNL1       -0.3037
     29 C         -19.4347   -5.5838  -30.0162 C.3     1  UNL1        0.0888
     30 C         -19.3805   -4.3194  -30.8915 C.3     1  UNL1       -0.0160
     31 C         -19.3409   -4.4515  -32.4559 C.3     1  UNL1        0.0390
     32 C         -19.4586   -3.1284  -33.2349 C.3     1  UNL1       -0.0262
     33 C         -18.0604   -2.7968  -33.8051 C.3     1  UNL1        0.0123
     34 N         -17.2623   -3.9424  -33.4746 N.am    1  UNL1       -0.3151
     35 C         -18.0039   -4.9340  -33.0029 C.2     1  UNL1        0.2162
     36 O         -17.6946   -6.1109  -33.0936 O.2     1  UNL1       -0.2755
     37 C         -20.6253   -6.4571  -30.3752 C.2     1  UNL1        0.2079
     38 O         -21.7627   -6.2799  -29.9410 O.2     1  UNL1       -0.2879
     39 C         -20.3528   -7.4545  -31.4232 C.ar    1  UNL1        0.1465
     40 N         -19.1925   -8.1025  -31.5625 N.ar    1  UNL1       -0.2360
     41 C         -19.1577   -8.7417  -32.7891 C.ar    1  UNL1        0.0790
     42 C         -18.0573   -9.4254  -33.3461 C.ar    1  UNL1       -0.0352
     43 C         -18.1584  -10.0520  -34.6014 C.ar    1  UNL1       -0.0597
     44 C         -19.3669  -10.0034  -35.3193 C.ar    1  UNL1       -0.0606
     45 C         -20.4705   -9.3057  -34.7981 C.ar    1  UNL1       -0.0459
     46 C         -20.3626   -8.6716  -33.5476 C.ar    1  UNL1        0.0396
     47 S         -21.5569   -7.7076  -32.6813 S.2     1  UNL1       -0.0643
     48 H         -22.0265   -2.8136  -31.6103 H       1  UNL1        0.0660
     49 H         -22.9002   -4.3154  -31.3290 H       1  UNL1        0.0660
     50 H         -23.5488   -3.0866  -32.4009 H       1  UNL1        0.0660
     51 H         -25.2864   -1.9627  -32.3296 H       1  UNL1        0.0655
     52 H         -27.7315   -1.9509  -32.1746 H       1  UNL1        0.0619
     53 H         -28.8294   -2.5376  -30.0572 H       1  UNL1        0.0619
     54 H         -27.5196   -2.9173  -28.0040 H       1  UNL1        0.0655
     55 H         -26.0884   -3.2101  -26.3364 H       1  UNL1        0.0795
     56 H         -25.8334   -1.5195  -26.7120 H       1  UNL1        0.0795
     57 H         -24.1879   -4.4499  -25.6304 H       1  UNL1        0.1496
     58 H         -23.0764   -4.8814  -23.8147 H       1  UNL1        0.0597
     59 H         -23.3906   -1.9817  -22.9966 H       1  UNL1        0.0318
     60 H         -22.9685   -2.6867  -20.7423 H       1  UNL1        0.0233
     61 H         -22.6038   -4.3097  -21.3246 H       1  UNL1        0.0233
     62 H         -21.5291   -2.9412  -21.7048 H       1  UNL1        0.0233
     63 H         -25.2252   -2.7687  -21.6631 H       1  UNL1        0.0233
     64 H         -25.5387   -3.1809  -23.3159 H       1  UNL1        0.0233
     65 H         -24.9807   -4.4217  -22.2031 H       1  UNL1        0.0233
     66 H         -21.9173   -5.2115  -25.8435 H       1  UNL1        0.1495
     67 H         -19.9053   -6.0610  -26.2374 H       1  UNL1        0.0594
     68 H         -18.6755   -4.8103  -24.4403 H       1  UNL1        0.0290
     69 H         -18.4492   -3.4895  -25.5595 H       1  UNL1        0.0290
     70 H         -17.1342   -4.9884  -27.0332 H       1  UNL1        0.0296
     71 H         -16.3844   -7.2456  -26.1507 H       1  UNL1        0.0232
     72 H         -17.6003   -7.1203  -24.8928 H       1  UNL1        0.0232
     73 H         -18.0719   -7.2241  -26.5886 H       1  UNL1        0.0232
     74 H         -15.2267   -5.4337  -25.2853 H       1  UNL1        0.0232
     75 H         -15.7463   -3.8000  -25.5603 H       1  UNL1        0.0232
     76 H         -16.3170   -4.6874  -24.1371 H       1  UNL1        0.0232
     77 H         -18.7576   -6.0995  -28.1077 H       1  UNL1        0.1495
     78 H         -18.5147   -6.1253  -30.2281 H       1  UNL1        0.0582
     79 H         -18.4513   -3.8848  -30.5930 H       1  UNL1        0.0295
     80 H         -20.1868   -3.6495  -30.6038 H       1  UNL1        0.0295
     81 H         -20.1475   -5.0953  -32.8009 H       1  UNL1        0.0395
     82 H         -19.8941   -2.3367  -32.6421 H       1  UNL1        0.0288
     83 H         -20.1549   -3.2618  -34.0639 H       1  UNL1        0.0288
     84 H         -17.5999   -1.8937  -33.4186 H       1  UNL1        0.0462
     85 H         -18.0936   -2.6974  -34.8899 H       1  UNL1        0.0462
     86 H         -16.3559   -4.0904  -33.8925 H       1  UNL1        0.1487
     87 H         -17.1274   -9.4683  -32.7978 H       1  UNL1        0.0639
     88 H         -17.3053  -10.5725  -35.0116 H       1  UNL1        0.0618
     89 H         -19.4365  -10.4825  -36.2850 H       1  UNL1        0.0618
     90 H         -21.3825   -9.2458  -35.3718 H       1  UNL1        0.0629
@<TRIPOS>BOND
     1     1     2    1
     2     1    48    1
     3     1    49    1
     4     1    50    1
     5     2     3    1
     6     3     8   ar
     7     3     4   ar
     8     4     5   ar
     9     4    51    1
    10     5     6   ar
    11     5    52    1
    12     6     7   ar
    13     6    53    1
    14     7     8   ar
    15     7    54    1
    16     8     9    1
    17     9    10    1
    18    10    11    1
    19    10    55    1
    20    10    56    1
    21    11    12    2
    22    11    13   am
    23    13    14    1
    24    13    57    1
    25    14    15    1
    26    14    18    1
    27    14    58    1
    28    15    16    1
    29    15    17    1
    30    15    59    1
    31    16    60    1
    32    16    61    1
    33    16    62    1
    34    17    63    1
    35    17    64    1
    36    17    65    1
    37    18    19    2
    38    18    20   am
    39    20    21    1
    40    20    66    1
    41    21    22    1
    42    21    26    1
    43    21    67    1
    44    22    23    1
    45    22    68    1
    46    22    69    1
    47    23    24    1
    48    23    25    1
    49    23    70    1
    50    24    71    1
    51    24    72    1
    52    24    73    1
    53    25    74    1
    54    25    75    1
    55    25    76    1
    56    26    27    2
    57    26    28   am
    58    28    29    1
    59    28    77    1
    60    29    30    1
    61    29    37    1
    62    29    78    1
    63    30    31    1
    64    30    79    1
    65    30    80    1
    66    31    35    1
    67    31    32    1
    68    31    81    1
    69    32    33    1
    70    32    82    1
    71    32    83    1
    72    33    34    1
    73    33    84    1
    74    33    85    1
    75    34    35   am
    76    34    86    1
    77    35    36    2
    78    37    38    2
    79    37    39    1
    80    39    47   ar
    81    39    40   ar
    82    40    41   ar
    83    41    46   ar
    84    41    42   ar
    85    42    43   ar
    86    42    87    1
    87    43    44   ar
    88    43    88    1
    89    44    45   ar
    90    44    89    1
    91    45    46   ar
    92    45    90    1
    93    46    47   ar
