
                    3D
 Schrodinger Suite 2019-4.
 90 93  0  0  1  0            999 V2000
  -23.0154   -3.2420  -31.4670 C   0  0  0  0  0  0
  -23.5883   -2.6551  -30.3027 O   0  0  0  0  0  0
  -24.9567   -2.5202  -30.2524 C   0  0  0  0  0  0
  -25.7396   -2.1875  -31.3819 C   0  0  0  0  0  0
  -27.1382   -2.1591  -31.2979 C   0  0  0  0  0  0
  -27.7624   -2.4679  -30.0833 C   0  0  0  0  0  0
  -26.9993   -2.7055  -28.9263 C   0  0  0  0  0  0
  -25.5862   -2.6956  -29.0021 C   0  0  0  0  0  0
  -24.7791   -2.8653  -27.9054 O   0  0  0  0  0  0
  -25.3398   -2.4890  -26.6632 C   0  0  0  0  0  0
  -24.2178   -2.4408  -25.6502 C   0  0  0  0  0  0
  -23.8074   -1.3662  -25.2280 O   0  0  0  0  0  0
  -23.7658   -3.6260  -25.2247 N   0  0  0  0  0  0
  -22.8946   -3.8370  -24.0743 C   0  0  2  0  0  0
  -23.3955   -3.0449  -22.8214 C   0  0  0  0  0  0
  -22.5600   -3.2539  -21.5787 C   0  0  0  0  0  0
  -24.8612   -3.3753  -22.4859 C   0  0  0  0  0  0
  -21.4060   -3.8513  -24.4903 C   0  0  0  0  0  0
  -20.5714   -3.1445  -23.9286 O   0  0  0  0  0  0
  -21.1199   -4.7024  -25.4922 N   0  0  0  0  0  0
  -19.8829   -4.9724  -26.2336 C   0  0  2  0  0  0
  -18.5764   -4.5714  -25.4991 C   0  0  0  0  0  0
  -17.2879   -5.2619  -25.9935 C   0  0  0  0  0  0
  -17.3455   -6.7961  -25.9013 C   0  0  0  0  0  0
  -16.0804   -4.7636  -25.1978 C   0  0  0  0  0  0
  -19.9892   -4.5855  -27.7215 C   0  0  0  0  0  0
  -20.7070   -3.6545  -28.0808 O   0  0  0  0  0  0
  -19.3279   -5.4012  -28.5633 N   0  0  0  0  0  0
  -19.4347   -5.5838  -30.0162 C   0  0  2  0  0  0
  -19.3805   -4.3194  -30.8915 C   0  0  0  0  0  0
  -19.3409   -4.4515  -32.4559 C   0  0  1  0  0  0
  -19.4586   -3.1284  -33.2349 C   0  0  0  0  0  0
  -18.0604   -2.7968  -33.8051 C   0  0  0  0  0  0
  -17.2623   -3.9424  -33.4746 N   0  0  0  0  0  0
  -18.0039   -4.9340  -33.0029 C   0  0  0  0  0  0
  -17.6946   -6.1109  -33.0936 O   0  0  0  0  0  0
  -20.6253   -6.4571  -30.3752 C   0  0  0  0  0  0
  -21.7627   -6.2799  -29.9410 O   0  0  0  0  0  0
  -20.3528   -7.4545  -31.4232 C   0  0  0  0  0  0
  -19.1925   -8.1025  -31.5625 N   0  0  0  0  0  0
  -19.1577   -8.7417  -32.7891 C   0  0  0  0  0  0
  -18.0573   -9.4254  -33.3461 C   0  0  0  0  0  0
  -18.1584  -10.0520  -34.6014 C   0  0  0  0  0  0
  -19.3669  -10.0034  -35.3193 C   0  0  0  0  0  0
  -20.4705   -9.3057  -34.7981 C   0  0  0  0  0  0
  -20.3626   -8.6716  -33.5476 C   0  0  0  0  0  0
  -21.5569   -7.7076  -32.6813 S   0  0  0  0  0  0
  -22.0265   -2.8136  -31.6103 H   0  0  0  0  0  0
  -22.9002   -4.3154  -31.3290 H   0  0  0  0  0  0
  -23.5488   -3.0866  -32.4009 H   0  0  0  0  0  0
  -25.2864   -1.9627  -32.3296 H   0  0  0  0  0  0
  -27.7315   -1.9509  -32.1746 H   0  0  0  0  0  0
  -28.8294   -2.5376  -30.0572 H   0  0  0  0  0  0
  -27.5196   -2.9173  -28.0040 H   0  0  0  0  0  0
  -26.0884   -3.2101  -26.3364 H   0  0  0  0  0  0
  -25.8334   -1.5195  -26.7120 H   0  0  0  0  0  0
  -24.1879   -4.4499  -25.6304 H   0  0  0  0  0  0
  -23.0764   -4.8814  -23.8147 H   0  0  0  0  0  0
  -23.3906   -1.9817  -22.9966 H   0  0  0  0  0  0
  -22.9685   -2.6867  -20.7423 H   0  0  0  0  0  0
  -22.6038   -4.3097  -21.3246 H   0  0  0  0  0  0
  -21.5291   -2.9412  -21.7048 H   0  0  0  0  0  0
  -25.2252   -2.7687  -21.6631 H   0  0  0  0  0  0
  -25.5387   -3.1809  -23.3159 H   0  0  0  0  0  0
  -24.9807   -4.4217  -22.2031 H   0  0  0  0  0  0
  -21.9173   -5.2115  -25.8435 H   0  0  0  0  0  0
  -19.9053   -6.0610  -26.2374 H   0  0  0  0  0  0
  -18.6755   -4.8103  -24.4403 H   0  0  0  0  0  0
  -18.4492   -3.4895  -25.5595 H   0  0  0  0  0  0
  -17.1342   -4.9884  -27.0332 H   0  0  0  0  0  0
  -16.3844   -7.2456  -26.1507 H   0  0  0  0  0  0
  -17.6003   -7.1203  -24.8928 H   0  0  0  0  0  0
  -18.0719   -7.2241  -26.5886 H   0  0  0  0  0  0
  -15.2267   -5.4337  -25.2853 H   0  0  0  0  0  0
  -15.7463   -3.8000  -25.5603 H   0  0  0  0  0  0
  -16.3170   -4.6874  -24.1371 H   0  0  0  0  0  0
  -18.7576   -6.0995  -28.1077 H   0  0  0  0  0  0
  -18.5147   -6.1253  -30.2281 H   0  0  0  0  0  0
  -18.4513   -3.8848  -30.5930 H   0  0  0  0  0  0
  -20.1868   -3.6495  -30.6038 H   0  0  0  0  0  0
  -20.1475   -5.0953  -32.8009 H   0  0  0  0  0  0
  -19.8941   -2.3367  -32.6421 H   0  0  0  0  0  0
  -20.1549   -3.2618  -34.0639 H   0  0  0  0  0  0
  -17.5999   -1.8937  -33.4186 H   0  0  0  0  0  0
  -18.0936   -2.6974  -34.8899 H   0  0  0  0  0  0
  -16.3559   -4.0904  -33.8925 H   0  0  0  0  0  0
  -17.1274   -9.4683  -32.7978 H   0  0  0  0  0  0
  -17.3053  -10.5725  -35.0116 H   0  0  0  0  0  0
  -19.4365  -10.4825  -36.2850 H   0  0  0  0  0  0
  -21.3825   -9.2458  -35.3718 H   0  0  0  0  0  0
  1  2  1  0  0  0
  1 48  1  0  0  0
  1 49  1  0  0  0
  1 50  1  0  0  0
  2  3  1  0  0  0
  3  8  1  0  0  0
  3  4  2  0  0  0
  4  5  1  0  0  0
  4 51  1  0  0  0
  5  6  2  0  0  0
  5 52  1  0  0  0
  6  7  1  0  0  0
  6 53  1  0  0  0
  7  8  2  0  0  0
  7 54  1  0  0  0
  8  9  1  0  0  0
  9 10  1  0  0  0
 10 11  1  0  0  0
 10 55  1  0  0  0
 10 56  1  0  0  0
 11 12  2  0  0  0
 11 13  1  0  0  0
 13 14  1  0  0  0
 13 57  1  0  0  0
 14 15  1  0  0  0
 14 18  1  0  0  0
 14 58  1  0  0  0
 15 16  1  0  0  0
 15 17  1  0  0  0
 15 59  1  0  0  0
 16 60  1  0  0  0
 16 61  1  0  0  0
 16 62  1  0  0  0
 17 63  1  0  0  0
 17 64  1  0  0  0
 17 65  1  0  0  0
 18 19  2  0  0  0
 18 20  1  0  0  0
 20 21  1  0  0  0
 20 66  1  0  0  0
 21 22  1  0  0  0
 21 26  1  0  0  0
 21 67  1  0  0  0
 22 23  1  0  0  0
 22 68  1  0  0  0
 22 69  1  0  0  0
 23 24  1  0  0  0
 23 25  1  0  0  0
 23 70  1  0  0  0
 24 71  1  0  0  0
 24 72  1  0  0  0
 24 73  1  0  0  0
 25 74  1  0  0  0
 25 75  1  0  0  0
 25 76  1  0  0  0
 26 27  2  0  0  0
 26 28  1  0  0  0
 28 29  1  0  0  0
 28 77  1  0  0  0
 29 30  1  0  0  0
 29 37  1  0  0  0
 29 78  1  0  0  0
 30 31  1  0  0  0
 30 79  1  0  0  0
 30 80  1  0  0  0
 31 35  1  0  0  0
 31 32  1  0  0  0
 31 81  1  0  0  0
 32 33  1  0  0  0
 32 82  1  0  0  0
 32 83  1  0  0  0
 33 34  1  0  0  0
 33 84  1  0  0  0
 33 85  1  0  0  0
 34 35  1  0  0  0
 34 86  1  0  0  0
 35 36  2  0  0  0
 37 38  2  0  0  0
 37 39  1  0  0  0
 39 47  1  0  0  0
 39 40  2  0  0  0
 40 41  1  0  0  0
 41 46  1  0  0  0
 41 42  2  0  0  0
 42 43  1  0  0  0
 42 87  1  0  0  0
 43 44  2  0  0  0
 43 88  1  0  0  0
 44 45  1  0  0  0
 44 89  1  0  0  0
 45 46  2  0  0  0
 45 90  1  0  0  0
 46 47  1  0  0  0
M  END
$$$$
