@<TRIPOS>MOLECULE
*****
 75 75 0 0 0
SMALL
GASTEIGER
****
Schrodinger Suite 2019-4.
@<TRIPOS>ATOM
      1 C         -26.6154   -4.9571  -23.5537 C.3     1  UNL1       -0.0639
      2 C         -25.4187   -4.5363  -24.4035 C.3     1  UNL1       -0.0400
      3 C         -24.0970   -4.7793  -23.6731 C.3     1  UNL1        0.0144
      4 N         -22.9563   -4.3997  -24.5114 N.am    1  UNL1       -0.3015
      5 C         -22.4194   -3.0820  -24.1922 C.3     1  UNL1        0.0144
      6 C         -21.4300   -3.1798  -23.0201 C.3     1  UNL1       -0.0400
      7 C         -20.0467   -3.7581  -23.3512 C.3     1  UNL1       -0.0639
      8 C         -22.4557   -5.2415  -25.4463 C.2     1  UNL1        0.2156
      9 O         -22.8904   -6.3854  -25.5816 O.2     1  UNL1       -0.2756
     10 C         -21.3363   -4.7629  -26.3875 C.3     1  UNL1        0.0262
     11 C         -20.6440   -5.9250  -27.1240 C.3     1  UNL1       -0.0190
     12 C         -19.2894   -5.5404  -27.7385 C.3     1  UNL1        0.0909
     13 N         -18.9408   -6.5244  -28.7593 N.am    1  UNL1       -0.3038
     14 C         -18.8069   -6.2658  -30.0642 C.2     1  UNL1        0.2340
     15 O         -18.9325   -5.1310  -30.5150 O.2     1  UNL1       -0.2738
     16 C         -18.5472   -7.4589  -30.9986 C.3     1  UNL1        0.1027
     17 C         -17.2747   -8.2355  -30.5877 C.3     1  UNL1       -0.0235
     18 C         -16.9518   -9.4526  -31.4836 C.3     1  UNL1       -0.0446
     19 C         -18.1233  -10.4429  -31.6020 C.3     1  UNL1       -0.0626
     20 C         -15.6847  -10.1659  -30.9917 C.3     1  UNL1       -0.0626
     21 N         -18.3441   -6.9877  -32.3621 N.am    1  UNL1       -0.2698
     22 C         -19.3271   -6.9036  -33.3219 C.2     1  UNL1        0.4012
     23 O         -20.5191   -7.1703  -33.1723 O.2     1  UNL1       -0.2265
     24 O         -18.7534   -6.5423  -34.4732 O.3     1  UNL1       -0.4456
     25 C         -19.4471   -6.7349  -35.6967 C.3     1  UNL1        0.1191
     26 C         -19.3117   -8.1584  -36.1927 C.ar    1  UNL1       -0.0103
     27 C         -18.1985   -8.5611  -36.9604 C.ar    1  UNL1       -0.0554
     28 C         -18.0766   -9.8994  -37.3776 C.ar    1  UNL1       -0.0614
     29 C         -19.0672  -10.8376  -37.0285 C.ar    1  UNL1       -0.0617
     30 C         -20.1820  -10.4357  -36.2684 C.ar    1  UNL1       -0.0614
     31 C         -20.3026   -9.0981  -35.8527 C.ar    1  UNL1       -0.0554
     32 C         -18.1557   -5.4132  -26.6989 C.2     1  UNL1        0.2553
     33 O         -17.5553   -4.3510  -26.5259 O.2     1  UNL1       -0.2860
     34 C         -17.7978   -6.6296  -25.8327 C.3     1  UNL1        0.4525
     35 F         -17.8934   -7.7637  -26.5261 F       1  UNL1       -0.1633
     36 F         -16.5485   -6.5191  -25.3831 F       1  UNL1       -0.1633
     37 F         -18.6195   -6.6913  -24.7871 F       1  UNL1       -0.1633
     38 H         -27.5543   -4.7227  -24.0560 H       1  UNL1        0.0230
     39 H         -26.6027   -6.0327  -23.3712 H       1  UNL1        0.0230
     40 H         -26.6053   -4.4622  -22.5824 H       1  UNL1        0.0230
     41 H         -25.5131   -3.4824  -24.6675 H       1  UNL1        0.0278
     42 H         -25.4298   -5.0993  -25.3363 H       1  UNL1        0.0278
     43 H         -24.0200   -5.8280  -23.3770 H       1  UNL1        0.0464
     44 H         -24.0995   -4.2210  -22.7358 H       1  UNL1        0.0464
     45 H         -23.2428   -2.4259  -23.9052 H       1  UNL1        0.0464
     46 H         -21.9946   -2.6134  -25.0729 H       1  UNL1        0.0464
     47 H         -21.8840   -3.7745  -22.2350 H       1  UNL1        0.0278
     48 H         -21.3243   -2.2075  -22.5669 H       1  UNL1        0.0278
     49 H         -19.4075   -3.7494  -22.4767 H       1  UNL1        0.0230
     50 H         -20.1149   -4.7970  -23.6731 H       1  UNL1        0.0230
     51 H         -19.5250   -3.1929  -24.1213 H       1  UNL1        0.0230
     52 H         -20.5866   -4.2028  -25.8407 H       1  UNL1        0.0359
     53 H         -21.7595   -4.0670  -27.1116 H       1  UNL1        0.0359
     54 H         -21.3158   -6.2533  -27.9195 H       1  UNL1        0.0292
     55 H         -20.5165   -6.7912  -26.4720 H       1  UNL1        0.0292
     56 H         -19.4326   -4.5660  -28.1982 H       1  UNL1        0.0580
     57 H         -18.8464   -7.4857  -28.4598 H       1  UNL1        0.1494
     58 H         -19.4219   -8.1067  -30.9423 H       1  UNL1        0.0596
     59 H         -17.3539   -8.5709  -29.5536 H       1  UNL1        0.0290
     60 H         -16.4151   -7.5696  -30.6245 H       1  UNL1        0.0290
     61 H         -16.7290   -9.0894  -32.4873 H       1  UNL1        0.0296
     62 H         -17.8359  -11.3115  -32.1954 H       1  UNL1        0.0232
     63 H         -18.4399  -10.7999  -30.6226 H       1  UNL1        0.0232
     64 H         -18.9856   -9.9954  -32.0959 H       1  UNL1        0.0232
     65 H         -15.4141  -10.9906  -31.6513 H       1  UNL1        0.0232
     66 H         -14.8351   -9.4829  -30.9605 H       1  UNL1        0.0232
     67 H         -15.8169  -10.5723  -29.9891 H       1  UNL1        0.0232
     68 H         -17.4190   -6.6901  -32.6376 H       1  UNL1        0.1528
     69 H         -19.0428   -6.0574  -36.4424 H       1  UNL1        0.0749
     70 H         -20.5031   -6.4828  -35.6025 H       1  UNL1        0.0749
     71 H         -17.4373   -7.8570  -37.2477 H       1  UNL1        0.0621
     72 H         -17.2230  -10.2035  -37.9656 H       1  UNL1        0.0618
     73 H         -18.9734  -11.8640  -37.3516 H       1  UNL1        0.0618
     74 H         -20.9449  -11.1537  -36.0063 H       1  UNL1        0.0618
     75 H         -21.1549   -8.7934  -35.2663 H       1  UNL1        0.0621
@<TRIPOS>BOND
     1     1     2    1
     2     1    38    1
     3     1    39    1
     4     1    40    1
     5     2     3    1
     6     2    41    1
     7     2    42    1
     8     3     4    1
     9     3    43    1
    10     3    44    1
    11     4     5    1
    12     4     8   am
    13     5     6    1
    14     5    45    1
    15     5    46    1
    16     6     7    1
    17     6    47    1
    18     6    48    1
    19     7    49    1
    20     7    50    1
    21     7    51    1
    22     8     9    2
    23     8    10    1
    24    10    11    1
    25    10    52    1
    26    10    53    1
    27    11    12    1
    28    11    54    1
    29    11    55    1
    30    12    13    1
    31    12    32    1
    32    12    56    1
    33    13    14   am
    34    13    57    1
    35    14    15    2
    36    14    16    1
    37    16    17    1
    38    16    21    1
    39    16    58    1
    40    17    18    1
    41    17    59    1
    42    17    60    1
    43    18    19    1
    44    18    20    1
    45    18    61    1
    46    19    62    1
    47    19    63    1
    48    19    64    1
    49    20    65    1
    50    20    66    1
    51    20    67    1
    52    21    22   am
    53    21    68    1
    54    22    23    2
    55    22    24    1
    56    24    25    1
    57    25    26    1
    58    25    69    1
    59    25    70    1
    60    26    31   ar
    61    26    27   ar
    62    27    28   ar
    63    27    71    1
    64    28    29   ar
    65    28    72    1
    66    29    30   ar
    67    29    73    1
    68    30    31   ar
    69    30    74    1
    70    31    75    1
    71    32    33    2
    72    32    34    1
    73    34    35    1
    74    34    36    1
    75    34    37    1
