
                    3D
 Schrodinger Suite 2019-4.
 75 75  0  0  1  0            999 V2000
  -26.6154   -4.9571  -23.5537 C   0  0  0  0  0  0
  -25.4187   -4.5363  -24.4035 C   0  0  0  0  0  0
  -24.0970   -4.7793  -23.6731 C   0  0  0  0  0  0
  -22.9563   -4.3997  -24.5114 N   0  0  0  0  0  0
  -22.4194   -3.0820  -24.1922 C   0  0  0  0  0  0
  -21.4300   -3.1798  -23.0201 C   0  0  0  0  0  0
  -20.0467   -3.7581  -23.3512 C   0  0  0  0  0  0
  -22.4557   -5.2415  -25.4463 C   0  0  0  0  0  0
  -22.8904   -6.3854  -25.5816 O   0  0  0  0  0  0
  -21.3363   -4.7629  -26.3875 C   0  0  0  0  0  0
  -20.6440   -5.9250  -27.1240 C   0  0  0  0  0  0
  -19.2894   -5.5404  -27.7385 C   0  0  2  0  0  0
  -18.9408   -6.5244  -28.7593 N   0  0  0  0  0  0
  -18.8069   -6.2658  -30.0642 C   0  0  0  0  0  0
  -18.9325   -5.1310  -30.5150 O   0  0  0  0  0  0
  -18.5472   -7.4589  -30.9986 C   0  0  2  0  0  0
  -17.2747   -8.2355  -30.5877 C   0  0  0  0  0  0
  -16.9518   -9.4526  -31.4836 C   0  0  0  0  0  0
  -18.1233  -10.4429  -31.6020 C   0  0  0  0  0  0
  -15.6847  -10.1659  -30.9917 C   0  0  0  0  0  0
  -18.3441   -6.9877  -32.3621 N   0  0  0  0  0  0
  -19.3271   -6.9036  -33.3219 C   0  0  0  0  0  0
  -20.5191   -7.1703  -33.1723 O   0  0  0  0  0  0
  -18.7534   -6.5423  -34.4732 O   0  0  0  0  0  0
  -19.4471   -6.7349  -35.6967 C   0  0  0  0  0  0
  -19.3117   -8.1584  -36.1927 C   0  0  0  0  0  0
  -18.1985   -8.5611  -36.9604 C   0  0  0  0  0  0
  -18.0766   -9.8994  -37.3776 C   0  0  0  0  0  0
  -19.0672  -10.8376  -37.0285 C   0  0  0  0  0  0
  -20.1820  -10.4357  -36.2684 C   0  0  0  0  0  0
  -20.3026   -9.0981  -35.8527 C   0  0  0  0  0  0
  -18.1557   -5.4132  -26.6989 C   0  0  0  0  0  0
  -17.5553   -4.3510  -26.5259 O   0  0  0  0  0  0
  -17.7978   -6.6296  -25.8327 C   0  0  0  0  0  0
  -17.8934   -7.7637  -26.5261 F   0  0  0  0  0  0
  -16.5485   -6.5191  -25.3831 F   0  0  0  0  0  0
  -18.6195   -6.6913  -24.7871 F   0  0  0  0  0  0
  -27.5543   -4.7227  -24.0560 H   0  0  0  0  0  0
  -26.6027   -6.0327  -23.3712 H   0  0  0  0  0  0
  -26.6053   -4.4622  -22.5824 H   0  0  0  0  0  0
  -25.5131   -3.4824  -24.6675 H   0  0  0  0  0  0
  -25.4298   -5.0993  -25.3363 H   0  0  0  0  0  0
  -24.0200   -5.8280  -23.3770 H   0  0  0  0  0  0
  -24.0995   -4.2210  -22.7358 H   0  0  0  0  0  0
  -23.2428   -2.4259  -23.9052 H   0  0  0  0  0  0
  -21.9946   -2.6134  -25.0729 H   0  0  0  0  0  0
  -21.8840   -3.7745  -22.2350 H   0  0  0  0  0  0
  -21.3243   -2.2075  -22.5669 H   0  0  0  0  0  0
  -19.4075   -3.7494  -22.4767 H   0  0  0  0  0  0
  -20.1149   -4.7970  -23.6731 H   0  0  0  0  0  0
  -19.5250   -3.1929  -24.1213 H   0  0  0  0  0  0
  -20.5866   -4.2028  -25.8407 H   0  0  0  0  0  0
  -21.7595   -4.0670  -27.1116 H   0  0  0  0  0  0
  -21.3158   -6.2533  -27.9195 H   0  0  0  0  0  0
  -20.5165   -6.7912  -26.4720 H   0  0  0  0  0  0
  -19.4326   -4.5660  -28.1982 H   0  0  0  0  0  0
  -18.8464   -7.4857  -28.4598 H   0  0  0  0  0  0
  -19.4219   -8.1067  -30.9423 H   0  0  0  0  0  0
  -17.3539   -8.5709  -29.5536 H   0  0  0  0  0  0
  -16.4151   -7.5696  -30.6245 H   0  0  0  0  0  0
  -16.7290   -9.0894  -32.4873 H   0  0  0  0  0  0
  -17.8359  -11.3115  -32.1954 H   0  0  0  0  0  0
  -18.4399  -10.7999  -30.6226 H   0  0  0  0  0  0
  -18.9856   -9.9954  -32.0959 H   0  0  0  0  0  0
  -15.4141  -10.9906  -31.6513 H   0  0  0  0  0  0
  -14.8351   -9.4829  -30.9605 H   0  0  0  0  0  0
  -15.8169  -10.5723  -29.9891 H   0  0  0  0  0  0
  -17.4190   -6.6901  -32.6376 H   0  0  0  0  0  0
  -19.0428   -6.0574  -36.4424 H   0  0  0  0  0  0
  -20.5031   -6.4828  -35.6025 H   0  0  0  0  0  0
  -17.4373   -7.8570  -37.2477 H   0  0  0  0  0  0
  -17.2230  -10.2035  -37.9656 H   0  0  0  0  0  0
  -18.9734  -11.8640  -37.3516 H   0  0  0  0  0  0
  -20.9449  -11.1537  -36.0063 H   0  0  0  0  0  0
  -21.1549   -8.7934  -35.2663 H   0  0  0  0  0  0
  1  2  1  0  0  0
  1 38  1  0  0  0
  1 39  1  0  0  0
  1 40  1  0  0  0
  2  3  1  0  0  0
  2 41  1  0  0  0
  2 42  1  0  0  0
  3  4  1  0  0  0
  3 43  1  0  0  0
  3 44  1  0  0  0
  4  5  1  0  0  0
  4  8  1  0  0  0
  5  6  1  0  0  0
  5 45  1  0  0  0
  5 46  1  0  0  0
  6  7  1  0  0  0
  6 47  1  0  0  0
  6 48  1  0  0  0
  7 49  1  0  0  0
  7 50  1  0  0  0
  7 51  1  0  0  0
  8  9  2  0  0  0
  8 10  1  0  0  0
 10 11  1  0  0  0
 10 52  1  0  0  0
 10 53  1  0  0  0
 11 12  1  0  0  0
 11 54  1  0  0  0
 11 55  1  0  0  0
 12 13  1  0  0  0
 12 32  1  0  0  0
 12 56  1  0  0  0
 13 14  1  0  0  0
 13 57  1  0  0  0
 14 15  2  0  0  0
 14 16  1  0  0  0
 16 17  1  0  0  0
 16 21  1  0  0  0
 16 58  1  0  0  0
 17 18  1  0  0  0
 17 59  1  0  0  0
 17 60  1  0  0  0
 18 19  1  0  0  0
 18 20  1  0  0  0
 18 61  1  0  0  0
 19 62  1  0  0  0
 19 63  1  0  0  0
 19 64  1  0  0  0
 20 65  1  0  0  0
 20 66  1  0  0  0
 20 67  1  0  0  0
 21 22  1  0  0  0
 21 68  1  0  0  0
 22 23  2  0  0  0
 22 24  1  0  0  0
 24 25  1  0  0  0
 25 26  1  0  0  0
 25 69  1  0  0  0
 25 70  1  0  0  0
 26 31  1  0  0  0
 26 27  2  0  0  0
 27 28  1  0  0  0
 27 71  1  0  0  0
 28 29  2  0  0  0
 28 72  1  0  0  0
 29 30  1  0  0  0
 29 73  1  0  0  0
 30 31  2  0  0  0
 30 74  1  0  0  0
 31 75  1  0  0  0
 32 33  2  0  0  0
 32 34  1  0  0  0
 34 35  1  0  0  0
 34 36  1  0  0  0
 34 37  1  0  0  0
M  END
$$$$
