@<TRIPOS>MOLECULE
*****
 84 85 0 0 0
SMALL
GASTEIGER
****
Schrodinger Suite 2019-4.
@<TRIPOS>ATOM
      1 C         -24.9054   -2.5493  -30.3699 C.3     1  UNL1       -0.0626
      2 C         -23.6984   -2.8535  -29.4655 C.3     1  UNL1       -0.0446
      3 C         -22.8372   -1.5907  -29.2658 C.3     1  UNL1       -0.0626
      4 C         -22.8932   -4.0378  -30.0418 C.3     1  UNL1       -0.0236
      5 C         -21.6998   -4.5716  -29.2047 C.3     1  UNL1        0.0996
      6 N         -21.1433   -5.6857  -29.9691 N.am    1  UNL1       -0.3025
      7 C         -19.8478   -5.9275  -30.1981 C.2     1  UNL1        0.2343
      8 O         -18.9315   -5.2873  -29.6833 O.2     1  UNL1       -0.2738
      9 C         -19.5365   -7.0759  -31.1937 C.3     1  UNL1        0.1048
     10 N         -19.0930   -6.4580  -32.4541 N.am    1  UNL1       -0.2696
     11 C         -19.7502   -6.6818  -33.6516 C.2     1  UNL1        0.4012
     12 O         -20.7839   -7.3308  -33.8084 O.2     1  UNL1       -0.2265
     13 O         -19.0611   -6.0848  -34.6451 O.3     1  UNL1       -0.4456
     14 C         -19.4814   -6.1772  -36.0070 C.3     1  UNL1        0.1191
     15 C         -19.2232   -7.5665  -36.5802 C.ar    1  UNL1       -0.0103
     16 C         -20.2925   -8.4373  -36.7983 C.ar    1  UNL1       -0.0554
     17 C         -20.0616   -9.7026  -37.3265 C.ar    1  UNL1       -0.0614
     18 C         -18.7611  -10.0899  -37.6409 C.ar    1  UNL1       -0.0617
     19 C         -17.6934   -9.2218  -37.4320 C.ar    1  UNL1       -0.0614
     20 C         -17.9196   -7.9570  -36.8950 C.ar    1  UNL1       -0.0554
     21 C         -18.4121   -8.0014  -30.6096 C.3     1  UNL1       -0.0196
     22 C         -17.9694   -9.0883  -31.6095 C.3     1  UNL1       -0.0605
     23 C         -18.7797   -8.6711  -29.2726 C.3     1  UNL1       -0.0605
     24 C         -22.1173   -5.0617  -27.8050 C.2     1  UNL1        0.2339
     25 O         -23.1249   -5.7617  -27.7029 O.2     1  UNL1       -0.2738
     26 N         -21.3407   -4.7168  -26.7579 N.am    1  UNL1       -0.3038
     27 C         -21.5569   -5.2005  -25.3764 C.3     1  UNL1        0.0909
     28 C         -20.4984   -6.2009  -24.8466 C.3     1  UNL1       -0.0190
     29 C         -19.9676   -7.2786  -25.8242 C.3     1  UNL1        0.0262
     30 C         -18.4955   -7.6338  -25.5537 C.2     1  UNL1        0.2158
     31 O         -18.2702   -8.5879  -24.8096 O.2     1  UNL1       -0.2756
     32 N         -17.5093   -6.9780  -26.2169 N.am    1  UNL1       -0.2971
     33 C         -16.0907   -7.3079  -25.9867 C.3     1  UNL1        0.0382
     34 C         -15.5064   -6.1752  -25.1083 C.3     1  UNL1        0.0635
     35 O         -15.7378   -4.8860  -25.6786 O.3     1  UNL1       -0.3767
     36 C         -17.1134   -4.6045  -25.9287 C.3     1  UNL1        0.0635
     37 C         -17.7132   -5.6728  -26.8595 C.3     1  UNL1        0.0382
     38 C         -21.6316   -3.9622  -24.4890 C.2     1  UNL1        0.2553
     39 O         -20.6282   -3.4329  -23.9959 O.2     1  UNL1       -0.2860
     40 C         -22.9846   -3.2489  -24.4081 C.3     1  UNL1        0.4525
     41 F         -23.9911   -4.1129  -24.4048 F       1  UNL1       -0.1633
     42 F         -23.0569   -2.4881  -23.3142 F       1  UNL1       -0.1633
     43 F         -23.0918   -2.4907  -25.4797 F       1  UNL1       -0.1633
     44 H         -25.6053   -3.3862  -30.3866 H       1  UNL1        0.0232
     45 H         -25.4546   -1.6823  -30.0083 H       1  UNL1        0.0232
     46 H         -24.6019   -2.3452  -31.3986 H       1  UNL1        0.0232
     47 H         -24.1015   -3.1361  -28.4942 H       1  UNL1        0.0296
     48 H         -22.6047   -1.4467  -28.2092 H       1  UNL1        0.0232
     49 H         -21.8956   -1.6547  -29.8113 H       1  UNL1        0.0232
     50 H         -23.3417   -0.6852  -29.6113 H       1  UNL1        0.0232
     51 H         -22.5307   -3.7576  -31.0331 H       1  UNL1        0.0290
     52 H         -23.5902   -4.8623  -30.2114 H       1  UNL1        0.0290
     53 H         -20.9575   -3.7773  -29.1009 H       1  UNL1        0.0594
     54 H         -21.8354   -6.2927  -30.3979 H       1  UNL1        0.1495
     55 H         -20.4386   -7.6819  -31.3292 H       1  UNL1        0.0598
     56 H         -18.1924   -5.9940  -32.4604 H       1  UNL1        0.1528
     57 H         -18.9269   -5.4478  -36.5979 H       1  UNL1        0.0749
     58 H         -20.5344   -5.9060  -36.1088 H       1  UNL1        0.0749
     59 H         -21.3024   -8.1391  -36.5556 H       1  UNL1        0.0621
     60 H         -20.8863  -10.3796  -37.4918 H       1  UNL1        0.0618
     61 H         -18.5810  -11.0735  -38.0481 H       1  UNL1        0.0618
     62 H         -16.6917   -9.5316  -37.6847 H       1  UNL1        0.0618
     63 H         -17.0914   -7.2827  -36.7337 H       1  UNL1        0.0621
     64 H         -17.5204   -7.3987  -30.4086 H       1  UNL1        0.0318
     65 H         -17.2088   -9.7401  -31.1774 H       1  UNL1        0.0233
     66 H         -18.8119   -9.7111  -31.9120 H       1  UNL1        0.0233
     67 H         -17.5373   -8.6527  -32.5123 H       1  UNL1        0.0233
     68 H         -17.9928   -9.3463  -28.9332 H       1  UNL1        0.0233
     69 H         -18.9173   -7.9316  -28.4898 H       1  UNL1        0.0233
     70 H         -19.7001   -9.2496  -29.3552 H       1  UNL1        0.0233
     71 H         -20.5080   -4.1687  -26.9203 H       1  UNL1        0.1494
     72 H         -22.5075   -5.7338  -25.3169 H       1  UNL1        0.0580
     73 H         -20.9823   -6.7175  -24.0170 H       1  UNL1        0.0292
     74 H         -19.6528   -5.6802  -24.3872 H       1  UNL1        0.0292
     75 H         -20.1151   -6.9999  -26.8648 H       1  UNL1        0.0359
     76 H         -20.5738   -8.1799  -25.7290 H       1  UNL1        0.0359
     77 H         -15.6342   -7.2682  -26.9757 H       1  UNL1        0.0487
     78 H         -15.9074   -8.3213  -25.6270 H       1  UNL1        0.0487
     79 H         -14.4359   -6.3215  -24.9878 H       1  UNL1        0.0575
     80 H         -15.9378   -6.2077  -24.1072 H       1  UNL1        0.0575
     81 H         -17.2072   -3.6315  -26.4069 H       1  UNL1        0.0575
     82 H         -17.6604   -4.5396  -24.9857 H       1  UNL1        0.0575
     83 H         -18.7088   -5.4642  -27.2378 H       1  UNL1        0.0487
     84 H         -17.0975   -5.7197  -27.7567 H       1  UNL1        0.0487
@<TRIPOS>BOND
     1     1     2    1
     2     1    44    1
     3     1    45    1
     4     1    46    1
     5     2     3    1
     6     2     4    1
     7     2    47    1
     8     3    48    1
     9     3    49    1
    10     3    50    1
    11     4     5    1
    12     4    51    1
    13     4    52    1
    14     5     6    1
    15     5    24    1
    16     5    53    1
    17     6     7   am
    18     6    54    1
    19     7     8    2
    20     7     9    1
    21     9    10    1
    22     9    21    1
    23     9    55    1
    24    10    11   am
    25    10    56    1
    26    11    12    2
    27    11    13    1
    28    13    14    1
    29    14    15    1
    30    14    57    1
    31    14    58    1
    32    15    20   ar
    33    15    16   ar
    34    16    17   ar
    35    16    59    1
    36    17    18   ar
    37    17    60    1
    38    18    19   ar
    39    18    61    1
    40    19    20   ar
    41    19    62    1
    42    20    63    1
    43    21    22    1
    44    21    23    1
    45    21    64    1
    46    22    65    1
    47    22    66    1
    48    22    67    1
    49    23    68    1
    50    23    69    1
    51    23    70    1
    52    24    25    2
    53    24    26   am
    54    26    27    1
    55    26    71    1
    56    27    28    1
    57    27    38    1
    58    27    72    1
    59    28    29    1
    60    28    73    1
    61    28    74    1
    62    29    30    1
    63    29    75    1
    64    29    76    1
    65    30    31    2
    66    30    32   am
    67    32    37    1
    68    32    33    1
    69    33    34    1
    70    33    77    1
    71    33    78    1
    72    34    35    1
    73    34    79    1
    74    34    80    1
    75    35    36    1
    76    36    37    1
    77    36    81    1
    78    36    82    1
    79    37    83    1
    80    37    84    1
    81    38    39    2
    82    38    40    1
    83    40    41    1
    84    40    42    1
    85    40    43    1
