@<TRIPOS>MOLECULE
*****
 31 33 0 0 0
SMALL
GASTEIGER
****
Schrodinger Suite 2019-4.
@<TRIPOS>ATOM
      1 O         -19.8427   -5.1313  -29.0730 O.2     1  UNL1       -0.2869
      2 C         -20.9157   -4.6987  -28.6518 C.ar    1  UNL1        0.1966
      3 C         -22.0204   -4.4137  -29.5735 C.ar    1  UNL1        0.0288
      4 C         -23.2279   -4.0135  -29.1221 C.ar    1  UNL1        0.1393
      5 C         -24.3669   -3.7100  -30.0000 C.ar    1  UNL1        0.0211
      6 C         -24.2117   -3.3892  -31.3683 C.ar    1  UNL1       -0.0474
      7 C         -25.3434   -3.0814  -32.1475 C.ar    1  UNL1       -0.0159
      8 C         -26.6283   -3.0966  -31.5737 C.ar    1  UNL1        0.1583
      9 O         -27.7105   -2.7506  -32.3282 O.3     1  UNL1       -0.5033
     10 C         -26.7819   -3.4680  -30.2224 C.ar    1  UNL1        0.1589
     11 O         -28.0114   -3.5564  -29.6502 O.3     1  UNL1       -0.5033
     12 C         -25.6576   -3.7636  -29.4396 C.ar    1  UNL1       -0.0059
     13 O         -23.4677   -3.8022  -27.7844 O.2     1  UNL1       -0.4544
     14 C         -22.4854   -4.0130  -26.8509 C.ar    1  UNL1        0.1462
     15 C         -22.8111   -3.7762  -25.5027 C.ar    1  UNL1        0.0231
     16 C         -21.8438   -3.9488  -24.4988 C.ar    1  UNL1        0.1239
     17 O         -22.1623   -3.6839  -23.2002 O.3     1  UNL1       -0.5065
     18 C         -20.5454   -4.3691  -24.8437 C.ar    1  UNL1        0.0223
     19 C         -20.2114   -4.6202  -26.1905 C.ar    1  UNL1        0.1347
     20 O         -18.9363   -5.0185  -26.4751 O.3     1  UNL1       -0.5058
     21 C         -21.1873   -4.4469  -27.2086 C.ar    1  UNL1        0.1055
     22 H         -21.8374   -4.5664  -30.6270 H       1  UNL1        0.0693
     23 H         -23.2352   -3.3505  -31.8264 H       1  UNL1        0.0626
     24 H         -25.2220   -2.8222  -33.1857 H       1  UNL1        0.0655
     25 H         -27.7491   -3.1966  -33.1597 H       1  UNL1        0.2923
     26 H         -27.9837   -3.7800  -28.7327 H       1  UNL1        0.2923
     27 H         -25.7944   -4.0369  -28.4035 H       1  UNL1        0.0662
     28 H         -23.8068   -3.4455  -25.2459 H       1  UNL1        0.0691
     29 H         -23.0764   -3.4743  -23.0799 H       1  UNL1        0.2921
     30 H         -19.7956   -4.4838  -24.0746 H       1  UNL1        0.0691
     31 H         -18.9204   -5.7910  -27.0231 H       1  UNL1        0.2922
@<TRIPOS>BOND
     1     1     2    2
     2     2    21   ar
     3     2     3   ar
     4     3     4   ar
     5     3    22    1
     6     4     5    1
     7     4    13   ar
     8     5    12   ar
     9     5     6   ar
    10     6     7   ar
    11     6    23    1
    12     7     8   ar
    13     7    24    1
    14     8     9    1
    15     8    10   ar
    16     9    25    1
    17    10    11    1
    18    10    12   ar
    19    11    26    1
    20    12    27    1
    21    13    14   ar
    22    14    21   ar
    23    14    15   ar
    24    15    16   ar
    25    15    28    1
    26    16    17    1
    27    16    18   ar
    28    17    29    1
    29    18    19   ar
    30    18    30    1
    31    19    20    1
    32    19    21   ar
    33    20    31    1
