@<TRIPOS>MOLECULE
*****
 76 79 0 0 0
SMALL
GASTEIGER
****
Schrodinger Suite 2019-4.
@<TRIPOS>ATOM
      1 O         -23.5959   -4.4356  -23.6349 O.2     1  UNL1       -0.2708
      2 C         -22.8436   -3.4680  -23.7073 C.2     1  UNL1        0.2375
      3 C         -23.2515   -2.1119  -23.4789 C.2     1  UNL1        0.0007
      4 C         -22.5552   -1.2790  -22.6819 C.2     1  UNL1       -0.0497
      5 C         -22.7152    0.1754  -22.6820 C.ar    1  UNL1       -0.0249
      6 C         -22.7960    0.8679  -23.8903 C.ar    1  UNL1       -0.0546
      7 C         -22.7961    2.2515  -23.8892 C.ar    1  UNL1       -0.0612
      8 C         -22.7963    2.9356  -22.6818 C.ar    1  UNL1       -0.0617
      9 C         -22.7958    2.2560  -21.4819 C.ar    1  UNL1       -0.0612
     10 C         -22.6595    0.8812  -21.4862 C.ar    1  UNL1       -0.0546
     11 N         -21.6018   -3.4956  -24.1979 N.am    1  UNL1       -0.3002
     12 C         -21.0125   -4.4844  -25.0949 C.3     1  UNL1        0.1036
     13 C         -19.5302   -4.5885  -24.6414 C.3     1  UNL1       -0.0006
     14 C         -18.6458   -5.6916  -25.1921 C.ar    1  UNL1       -0.0451
     15 C         -17.2459   -5.5070  -25.1695 C.ar    1  UNL1       -0.0585
     16 C         -16.3960   -6.5569  -25.4817 C.ar    1  UNL1       -0.0615
     17 C         -16.9141   -7.8004  -25.8128 C.ar    1  UNL1       -0.0617
     18 C         -18.2873   -8.0094  -25.8048 C.ar    1  UNL1       -0.0615
     19 C         -19.1550   -6.9753  -25.4828 C.ar    1  UNL1       -0.0585
     20 C         -21.1705   -3.9108  -26.5316 C.2     1  UNL1        0.2342
     21 O         -21.1952   -2.6888  -26.6821 O.2     1  UNL1       -0.2738
     22 N         -21.2827   -4.7602  -27.5700 N.am    1  UNL1       -0.3036
     23 C         -21.3697   -4.3143  -28.9813 C.3     1  UNL1        0.0914
     24 C         -22.6938   -3.5734  -29.3372 C.3     1  UNL1       -0.0159
     25 C         -22.7690   -3.0302  -30.8066 C.3     1  UNL1        0.0390
     26 C         -23.8764   -3.6779  -31.6297 C.3     1  UNL1       -0.0262
     27 C         -25.0723   -2.7911  -31.3583 C.3     1  UNL1        0.0123
     28 N         -24.4568   -1.4964  -31.1302 N.am    1  UNL1       -0.3151
     29 C         -23.1483   -1.5370  -30.8352 C.2     1  UNL1        0.2162
     30 O         -22.3964   -0.5800  -30.6827 O.2     1  UNL1       -0.2755
     31 C         -21.1254   -5.5606  -29.8374 C.2     1  UNL1        0.2372
     32 O         -21.9812   -6.0923  -30.5534 O.2     1  UNL1       -0.2852
     33 C         -19.6457   -6.1282  -29.8011 C.2     1  UNL1        0.2817
     34 O         -18.7961   -5.6079  -29.0815 O.2     1  UNL1       -0.2670
     35 N         -19.4656   -7.2094  -30.5814 N.am    1  UNL1       -0.3048
     36 C         -18.2866   -8.0723  -30.4848 C.3     1  UNL1        0.0372
     37 C         -17.7451   -8.7316  -31.7425 C.ar    1  UNL1       -0.0303
     38 C         -16.6376   -9.5715  -31.5902 C.ar    1  UNL1       -0.0571
     39 C         -16.1512  -10.2895  -32.6730 C.ar    1  UNL1       -0.0615
     40 C         -16.7729  -10.1623  -33.9100 C.ar    1  UNL1       -0.0617
     41 C         -17.8548   -9.3021  -34.0837 C.ar    1  UNL1       -0.0615
     42 C         -18.3416   -8.5773  -32.9991 C.ar    1  UNL1       -0.0571
     43 H         -24.0908   -1.7768  -24.0726 H       1  UNL1        0.0669
     44 H         -21.7576   -1.6552  -22.0559 H       1  UNL1        0.0625
     45 H         -22.7960    0.3362  -24.8294 H       1  UNL1        0.0623
     46 H         -22.8053    2.7924  -24.8183 H       1  UNL1        0.0618
     47 H         -22.7966    4.0145  -22.6671 H       1  UNL1        0.0618
     48 H         -22.7917    2.7940  -20.5510 H       1  UNL1        0.0618
     49 H         -22.5562    0.3532  -20.5497 H       1  UNL1        0.0623
     50 H         -21.1161   -2.6124  -24.2314 H       1  UNL1        0.1498
     51 H         -21.5279   -5.4395  -24.9893 H       1  UNL1        0.0598
     52 H         -19.4950   -4.7031  -23.5560 H       1  UNL1        0.0336
     53 H         -19.0259   -3.6383  -24.8364 H       1  UNL1        0.0336
     54 H         -16.8269   -4.5529  -24.8836 H       1  UNL1        0.0620
     55 H         -15.3245   -6.4103  -25.4663 H       1  UNL1        0.0618
     56 H         -16.2391   -8.6085  -26.0566 H       1  UNL1        0.0618
     57 H         -18.6846   -8.9901  -26.0177 H       1  UNL1        0.0618
     58 H         -20.2136   -7.1808  -25.4321 H       1  UNL1        0.0620
     59 H         -21.2396   -5.7568  -27.4080 H       1  UNL1        0.1495
     60 H         -20.5560   -3.6098  -29.1716 H       1  UNL1        0.0583
     61 H         -22.8308   -2.7591  -28.6212 H       1  UNL1        0.0295
     62 H         -23.5396   -4.2301  -29.1230 H       1  UNL1        0.0295
     63 H         -21.8228   -3.1488  -31.3354 H       1  UNL1        0.0395
     64 H         -24.0737   -4.7242  -31.3911 H       1  UNL1        0.0288
     65 H         -23.6200   -3.6451  -32.6911 H       1  UNL1        0.0288
     66 H         -25.6003   -3.0975  -30.4556 H       1  UNL1        0.0462
     67 H         -25.7565   -2.7614  -32.2066 H       1  UNL1        0.0462
     68 H         -24.9909   -0.6402  -31.0858 H       1  UNL1        0.1487
     69 H         -20.2565   -7.5561  -31.1031 H       1  UNL1        0.1494
     70 H         -18.5949   -8.9187  -29.8818 H       1  UNL1        0.0512
     71 H         -17.4636   -7.6006  -29.9451 H       1  UNL1        0.0512
     72 H         -16.1656   -9.6852  -30.6246 H       1  UNL1        0.0621
     73 H         -15.2983  -10.9433  -32.5511 H       1  UNL1        0.0618
     74 H         -16.4013  -10.7351  -34.7446 H       1  UNL1        0.0618
     75 H         -18.3189   -9.2085  -35.0555 H       1  UNL1        0.0618
     76 H         -19.1906   -7.9244  -33.1376 H       1  UNL1        0.0621
@<TRIPOS>BOND
     1     1     2    2
     2     2     3    1
     3     2    11   am
     4     3     4    2
     5     3    43    1
     6     4     5    1
     7     4    44    1
     8     5    10   ar
     9     5     6   ar
    10     6     7   ar
    11     6    45    1
    12     7     8   ar
    13     7    46    1
    14     8     9   ar
    15     8    47    1
    16     9    10   ar
    17     9    48    1
    18    10    49    1
    19    11    12    1
    20    11    50    1
    21    12    13    1
    22    12    20    1
    23    12    51    1
    24    13    14    1
    25    13    52    1
    26    13    53    1
    27    14    19   ar
    28    14    15   ar
    29    15    16   ar
    30    15    54    1
    31    16    17   ar
    32    16    55    1
    33    17    18   ar
    34    17    56    1
    35    18    19   ar
    36    18    57    1
    37    19    58    1
    38    20    21    2
    39    20    22   am
    40    22    23    1
    41    22    59    1
    42    23    24    1
    43    23    31    1
    44    23    60    1
    45    24    25    1
    46    24    61    1
    47    24    62    1
    48    25    29    1
    49    25    26    1
    50    25    63    1
    51    26    27    1
    52    26    64    1
    53    26    65    1
    54    27    28    1
    55    27    66    1
    56    27    67    1
    57    28    29   am
    58    28    68    1
    59    29    30    2
    60    31    32    2
    61    31    33    1
    62    33    34    2
    63    33    35   am
    64    35    36    1
    65    35    69    1
    66    36    37    1
    67    36    70    1
    68    36    71    1
    69    37    42   ar
    70    37    38   ar
    71    38    39   ar
    72    38    72    1
    73    39    40   ar
    74    39    73    1
    75    40    41   ar
    76    40    74    1
    77    41    42   ar
    78    41    75    1
    79    42    76    1
