
                    3D
 Schrodinger Suite 2019-4.
106109  0  0  1  0            999 V2000
  -17.2212  -11.5693  -36.0042 C   0  0  0  0  0  0
  -16.6419  -11.3039  -34.7323 O   0  0  0  0  0  0
  -17.2219  -10.3588  -33.9114 C   0  0  0  0  0  0
  -18.3605   -9.6117  -34.2432 C   0  0  0  0  0  0
  -18.8669   -8.6701  -33.3515 C   0  0  0  0  0  0
  -18.2449   -8.4608  -32.1145 C   0  0  0  0  0  0
  -18.7155   -7.4474  -31.1512 C   0  0  0  0  0  0
  -19.8919   -6.7845  -31.1809 C   0  0  0  0  0  0
  -20.2084   -5.7647  -30.2109 C   0  0  0  0  0  0
  -19.3514   -5.2130  -29.5184 O   0  0  0  0  0  0
  -21.5158   -5.4475  -30.1651 N   0  0  0  0  0  0
  -22.1382   -4.4644  -29.2582 C   0  0  2  0  0  0
  -21.7327   -2.9952  -29.6178 C   0  0  0  0  0  0
  -22.1877   -2.4026  -30.9864 C   0  0  0  0  0  0
  -23.7112   -2.3491  -31.2020 C   0  0  0  0  0  0
  -21.4800   -3.0161  -32.2099 C   0  0  0  0  0  0
  -21.9458   -4.8827  -27.7707 C   0  0  0  0  0  0
  -22.3046   -6.0130  -27.4418 O   0  0  0  0  0  0
  -21.4050   -4.0031  -26.9068 N   0  0  0  0  0  0
  -20.9729   -4.1784  -25.4986 C   0  0  2  0  0  0
  -19.4204   -4.1551  -25.3381 C   0  0  0  0  0  0
  -18.5859   -5.4141  -25.6032 C   0  0  0  0  0  0
  -17.3758   -5.5563  -24.9173 C   0  0  0  0  0  0
  -16.5761   -6.6774  -25.1197 C   0  0  0  0  0  0
  -16.9819   -7.6626  -26.0123 C   0  0  0  0  0  0
  -18.1691   -7.5236  -26.7215 C   0  0  0  0  0  0
  -18.9609   -6.3980  -26.5224 C   0  0  0  0  0  0
  -21.7502   -5.1406  -24.5293 C   0  0  2  0  0  0
  -21.5155   -6.4891  -24.8567 O   0  0  0  0  0  0
  -23.2919   -4.9603  -24.4537 C   0  0  0  0  0  0
  -23.7932   -3.6630  -23.7561 C   0  0  1  0  0  0
  -25.2692   -3.3110  -24.0800 C   0  0  0  0  0  0
  -25.6447   -3.0778  -25.5446 C   0  0  0  0  0  0
  -26.9966   -3.0708  -25.8947 C   0  0  0  0  0  0
  -27.3948   -2.9330  -27.2171 C   0  0  0  0  0  0
  -26.4234   -2.8041  -28.1991 C   0  0  0  0  0  0
  -25.0748   -2.7830  -27.8680 C   0  0  0  0  0  0
  -24.6853   -2.8809  -26.5394 C   0  0  0  0  0  0
  -23.6563   -3.7803  -22.3016 N   0  0  0  0  0  0
  -22.7211   -3.2210  -21.5192 C   0  0  0  0  0  0
  -21.8205   -2.5010  -21.9510 O   0  0  0  0  0  0
  -22.8212   -3.4811  -20.0094 C   0  0  0  0  0  0
  -23.5618   -4.6722  -19.7289 O   0  0  0  0  0  0
  -23.0270   -5.5770  -18.8283 C   0  0  0  0  0  0
  -23.0035   -6.9250  -19.2170 C   0  0  0  0  0  0
  -23.4547   -7.3332  -20.6129 C   0  0  0  0  0  0
  -22.5534   -7.9049  -18.3260 C   0  0  0  0  0  0
  -22.1281   -7.5532  -17.0493 C   0  0  0  0  0  0
  -22.1652   -6.2213  -16.6463 C   0  0  0  0  0  0
  -22.6200   -5.2301  -17.5173 C   0  0  0  0  0  0
  -22.7489   -3.8127  -16.9761 C   0  0  0  0  0  0
  -17.1132   -9.2128  -31.7829 C   0  0  0  0  0  0
  -16.6101  -10.1534  -32.6763 C   0  0  0  0  0  0
  -16.6316  -12.3349  -36.5103 H   0  0  0  0  0  0
  -18.2429  -11.9426  -35.9092 H   0  0  0  0  0  0
  -17.2221  -10.6801  -36.6376 H   0  0  0  0  0  0
  -18.8553   -9.7335  -35.1955 H   0  0  0  0  0  0
  -19.7318   -8.0919  -33.6449 H   0  0  0  0  0  0
  -18.0114   -7.2151  -30.3595 H   0  0  0  0  0  0
  -20.6381   -6.9905  -31.9339 H   0  0  0  0  0  0
  -22.1594   -5.9906  -30.7162 H   0  0  0  0  0  0
  -23.2129   -4.5547  -29.4008 H   0  0  0  0  0  0
  -20.6547   -2.8836  -29.5186 H   0  0  0  0  0  0
  -22.1397   -2.3288  -28.8567 H   0  0  0  0  0  0
  -21.8592   -1.3605  -30.9623 H   0  0  0  0  0  0
  -23.9679   -2.3440  -32.2622 H   0  0  0  0  0  0
  -24.2197   -3.2010  -30.7591 H   0  0  0  0  0  0
  -24.1376   -1.4438  -30.7680 H   0  0  0  0  0  0
  -21.1168   -2.2357  -32.8795 H   0  0  0  0  0  0
  -20.6202   -3.6123  -31.9193 H   0  0  0  0  0  0
  -22.1411   -3.6606  -32.7883 H   0  0  0  0  0  0
  -21.1347   -3.1146  -27.3076 H   0  0  0  0  0  0
  -21.2621   -3.2130  -25.0995 H   0  0  0  0  0  0
  -19.2204   -3.8555  -24.3078 H   0  0  0  0  0  0
  -19.0046   -3.3595  -25.9590 H   0  0  0  0  0  0
  -17.0480   -4.8027  -24.2156 H   0  0  0  0  0  0
  -15.6366   -6.7827  -24.5963 H   0  0  0  0  0  0
  -16.3514   -8.5237  -26.1793 H   0  0  0  0  0  0
  -18.4674   -8.2829  -27.4291 H   0  0  0  0  0  0
  -19.8623   -6.3161  -27.0959 H   0  0  0  0  0  0
  -21.3567   -5.0018  -23.5212 H   0  0  0  0  0  0
  -21.7075   -6.5807  -25.7992 H   0  0  0  0  0  0
  -23.7121   -5.8049  -23.9006 H   0  0  0  0  0  0
  -23.7154   -5.0652  -25.4492 H   0  0  0  0  0  0
  -23.1953   -2.8152  -24.1007 H   0  0  0  0  0  0
  -25.5586   -2.4159  -23.5247 H   0  0  0  0  0  0
  -25.9022   -4.1138  -23.6996 H   0  0  0  0  0  0
  -27.7456   -3.2122  -25.1343 H   0  0  0  0  0  0
  -28.4433   -2.9420  -27.4784 H   0  0  0  0  0  0
  -26.7211   -2.6946  -29.2275 H   0  0  0  0  0  0
  -24.3363   -2.6245  -28.6296 H   0  0  0  0  0  0
  -23.6377   -2.8164  -26.3034 H   0  0  0  0  0  0
  -24.3632   -4.3237  -21.8295 H   0  0  0  0  0  0
  -23.3050   -2.6198  -19.5495 H   0  0  0  0  0  0
  -21.8203   -3.5591  -19.6153 H   0  0  0  0  0  0
  -23.4211   -8.4128  -20.7620 H   0  0  0  0  0  0
  -24.4774   -6.9968  -20.7900 H   0  0  0  0  0  0
  -22.8212   -6.8589  -21.3639 H   0  0  0  0  0  0
  -22.5240   -8.9423  -18.6230 H   0  0  0  0  0  0
  -21.7776   -8.3143  -16.3680 H   0  0  0  0  0  0
  -21.8591   -5.9680  -15.6417 H   0  0  0  0  0  0
  -21.8750   -3.2130  -17.2282 H   0  0  0  0  0  0
  -23.6459   -3.3274  -17.3579 H   0  0  0  0  0  0
  -22.8593   -3.8161  -15.8930 H   0  0  0  0  0  0
  -16.6093   -9.0622  -30.8378 H   0  0  0  0  0  0
  -15.7316  -10.7231  -32.4112 H   0  0  0  0  0  0
  1  2  1  0  0  0
  1 54  1  0  0  0
  1 55  1  0  0  0
  1 56  1  0  0  0
  2  3  1  0  0  0
  3 53  1  0  0  0
  3  4  2  0  0  0
  4  5  1  0  0  0
  4 57  1  0  0  0
  5  6  2  0  0  0
  5 58  1  0  0  0
  6  7  1  0  0  0
  6 52  1  0  0  0
  7  8  2  0  0  0
  7 59  1  0  0  0
  8  9  1  0  0  0
  8 60  1  0  0  0
  9 10  2  0  0  0
  9 11  1  0  0  0
 11 12  1  0  0  0
 11 61  1  0  0  0
 12 13  1  0  0  0
 12 17  1  0  0  0
 12 62  1  0  0  0
 13 14  1  0  0  0
 13 63  1  0  0  0
 13 64  1  0  0  0
 14 15  1  0  0  0
 14 16  1  0  0  0
 14 65  1  0  0  0
 15 66  1  0  0  0
 15 67  1  0  0  0
 15 68  1  0  0  0
 16 69  1  0  0  0
 16 70  1  0  0  0
 16 71  1  0  0  0
 17 18  2  0  0  0
 17 19  1  0  0  0
 19 20  1  0  0  0
 19 72  1  0  0  0
 20 21  1  0  0  0
 20 28  1  0  0  0
 20 73  1  0  0  0
 21 22  1  0  0  0
 21 74  1  0  0  0
 21 75  1  0  0  0
 22 27  1  0  0  0
 22 23  2  0  0  0
 23 24  1  0  0  0
 23 76  1  0  0  0
 24 25  2  0  0  0
 24 77  1  0  0  0
 25 26  1  0  0  0
 25 78  1  0  0  0
 26 27  2  0  0  0
 26 79  1  0  0  0
 27 80  1  0  0  0
 28 29  1  0  0  0
 28 30  1  0  0  0
 28 81  1  0  0  0
 29 82  1  0  0  0
 30 31  1  0  0  0
 30 83  1  0  0  0
 30 84  1  0  0  0
 31 32  1  0  0  0
 31 39  1  0  0  0
 31 85  1  0  0  0
 32 33  1  0  0  0
 32 86  1  0  0  0
 32 87  1  0  0  0
 33 38  1  0  0  0
 33 34  2  0  0  0
 34 35  1  0  0  0
 34 88  1  0  0  0
 35 36  2  0  0  0
 35 89  1  0  0  0
 36 37  1  0  0  0
 36 90  1  0  0  0
 37 38  2  0  0  0
 37 91  1  0  0  0
 38 92  1  0  0  0
 39 40  1  0  0  0
 39 93  1  0  0  0
 40 41  2  0  0  0
 40 42  1  0  0  0
 42 43  1  0  0  0
 42 94  1  0  0  0
 42 95  1  0  0  0
 43 44  1  0  0  0
 44 50  1  0  0  0
 44 45  2  0  0  0
 45 46  1  0  0  0
 45 47  1  0  0  0
 46 96  1  0  0  0
 46 97  1  0  0  0
 46 98  1  0  0  0
 47 48  2  0  0  0
 47 99  1  0  0  0
 48 49  1  0  0  0
 48100  1  0  0  0
 49 50  2  0  0  0
 49101  1  0  0  0
 50 51  1  0  0  0
 51102  1  0  0  0
 51103  1  0  0  0
 51104  1  0  0  0
 52 53  2  0  0  0
 52105  1  0  0  0
 53106  1  0  0  0
M  END
$$$$
