@<TRIPOS>MOLECULE
*****
 106 109 0 0 0
SMALL
GASTEIGER
****
Schrodinger Suite 2019-4.
@<TRIPOS>ATOM
      1 C         -17.2212  -11.5693  -36.0042 C.3     1  UNL1        0.0788
      2 O         -16.6419  -11.3039  -34.7323 O.3     1  UNL1       -0.4951
      3 C         -17.2219  -10.3588  -33.9114 C.ar    1  UNL1        0.1201
      4 C         -18.3605   -9.6117  -34.2432 C.ar    1  UNL1       -0.0194
      5 C         -18.8669   -8.6701  -33.3515 C.ar    1  UNL1       -0.0511
      6 C         -18.2449   -8.4608  -32.1145 C.ar    1  UNL1       -0.0246
      7 C         -18.7155   -7.4474  -31.1512 C.2     1  UNL1       -0.0497
      8 C         -19.8919   -6.7845  -31.1809 C.2     1  UNL1        0.0007
      9 C         -20.2084   -5.7647  -30.2109 C.2     1  UNL1        0.2375
     10 O         -19.3514   -5.2130  -29.5184 O.2     1  UNL1       -0.2708
     11 N         -21.5158   -5.4475  -30.1651 N.am    1  UNL1       -0.3005
     12 C         -22.1382   -4.4644  -29.2582 C.3     1  UNL1        0.0999
     13 C         -21.7327   -2.9952  -29.6178 C.3     1  UNL1       -0.0236
     14 C         -22.1877   -2.4026  -30.9864 C.3     1  UNL1       -0.0446
     15 C         -23.7112   -2.3491  -31.2020 C.3     1  UNL1       -0.0626
     16 C         -21.4800   -3.0161  -32.2099 C.3     1  UNL1       -0.0626
     17 C         -21.9458   -4.8827  -27.7707 C.2     1  UNL1        0.2337
     18 O         -22.3046   -6.0130  -27.4418 O.2     1  UNL1       -0.2738
     19 N         -21.4050   -4.0031  -26.9068 N.am    1  UNL1       -0.3082
     20 C         -20.9729   -4.1784  -25.4986 C.3     1  UNL1        0.0531
     21 C         -19.4204   -4.1551  -25.3381 C.3     1  UNL1       -0.0068
     22 C         -18.5859   -5.4141  -25.6032 C.ar    1  UNL1       -0.0455
     23 C         -17.3758   -5.5563  -24.9173 C.ar    1  UNL1       -0.0585
     24 C         -16.5761   -6.6774  -25.1197 C.ar    1  UNL1       -0.0615
     25 C         -16.9819   -7.6626  -26.0123 C.ar    1  UNL1       -0.0617
     26 C         -18.1691   -7.5236  -26.7215 C.ar    1  UNL1       -0.0615
     27 C         -18.9609   -6.3980  -26.5224 C.ar    1  UNL1       -0.0585
     28 C         -21.7502   -5.1406  -24.5293 C.3     1  UNL1        0.0755
     29 O         -21.5155   -6.4891  -24.8567 O.3     1  UNL1       -0.3899
     30 C         -23.2919   -4.9603  -24.4537 C.3     1  UNL1       -0.0063
     31 C         -23.7932   -3.6630  -23.7561 C.3     1  UNL1        0.0296
     32 C         -25.2692   -3.3110  -24.0800 C.3     1  UNL1       -0.0091
     33 C         -25.6447   -3.0778  -25.5446 C.ar    1  UNL1       -0.0456
     34 C         -26.9966   -3.0708  -25.8947 C.ar    1  UNL1       -0.0585
     35 C         -27.3948   -2.9330  -27.2171 C.ar    1  UNL1       -0.0615
     36 C         -26.4234   -2.8041  -28.1991 C.ar    1  UNL1       -0.0617
     37 C         -25.0748   -2.7830  -27.8680 C.ar    1  UNL1       -0.0615
     38 C         -24.6853   -2.8809  -26.5394 C.ar    1  UNL1       -0.0585
     39 N         -23.6563   -3.7803  -22.3016 N.am    1  UNL1       -0.3093
     40 C         -22.7211   -3.2210  -21.5192 C.2     1  UNL1        0.2509
     41 O         -21.8205   -2.5010  -21.9510 O.2     1  UNL1       -0.2721
     42 C         -22.8212   -3.4811  -20.0094 C.3     1  UNL1        0.1652
     43 O         -23.5618   -4.6722  -19.7289 O.3     1  UNL1       -0.4822
     44 C         -23.0270   -5.5770  -18.8283 C.ar    1  UNL1        0.1270
     45 C         -23.0035   -6.9250  -19.2170 C.ar    1  UNL1       -0.0085
     46 C         -23.4547   -7.3332  -20.6129 C.3     1  UNL1       -0.0362
     47 C         -22.5534   -7.9049  -18.3260 C.ar    1  UNL1       -0.0554
     48 C         -22.1281   -7.5532  -17.0493 C.ar    1  UNL1       -0.0610
     49 C         -22.1652   -6.2213  -16.6463 C.ar    1  UNL1       -0.0554
     50 C         -22.6200   -5.2301  -17.5173 C.ar    1  UNL1       -0.0085
     51 C         -22.7489   -3.8127  -16.9761 C.3     1  UNL1       -0.0362
     52 C         -17.1132   -9.2128  -31.7829 C.ar    1  UNL1       -0.0511
     53 C         -16.6101  -10.1534  -32.6763 C.ar    1  UNL1       -0.0194
     54 H         -16.6316  -12.3349  -36.5103 H       1  UNL1        0.0660
     55 H         -18.2429  -11.9426  -35.9092 H       1  UNL1        0.0660
     56 H         -17.2221  -10.6801  -36.6376 H       1  UNL1        0.0660
     57 H         -18.8553   -9.7335  -35.1955 H       1  UNL1        0.0654
     58 H         -19.7318   -8.0919  -33.6449 H       1  UNL1        0.0625
     59 H         -18.0114   -7.2151  -30.3595 H       1  UNL1        0.0625
     60 H         -20.6381   -6.9905  -31.9339 H       1  UNL1        0.0669
     61 H         -22.1594   -5.9906  -30.7162 H       1  UNL1        0.1498
     62 H         -23.2129   -4.5547  -29.4008 H       1  UNL1        0.0595
     63 H         -20.6547   -2.8836  -29.5186 H       1  UNL1        0.0290
     64 H         -22.1397   -2.3288  -28.8567 H       1  UNL1        0.0290
     65 H         -21.8592   -1.3605  -30.9623 H       1  UNL1        0.0296
     66 H         -23.9679   -2.3440  -32.2622 H       1  UNL1        0.0232
     67 H         -24.2197   -3.2010  -30.7591 H       1  UNL1        0.0232
     68 H         -24.1376   -1.4438  -30.7680 H       1  UNL1        0.0232
     69 H         -21.1168   -2.2357  -32.8795 H       1  UNL1        0.0232
     70 H         -20.6202   -3.6123  -31.9193 H       1  UNL1        0.0232
     71 H         -22.1411   -3.6606  -32.7883 H       1  UNL1        0.0232
     72 H         -21.1347   -3.1146  -27.3076 H       1  UNL1        0.1491
     73 H         -21.2621   -3.2130  -25.0995 H       1  UNL1        0.0527
     74 H         -19.2204   -3.8555  -24.3078 H       1  UNL1        0.0332
     75 H         -19.0046   -3.3595  -25.9590 H       1  UNL1        0.0332
     76 H         -17.0480   -4.8027  -24.2156 H       1  UNL1        0.0620
     77 H         -15.6366   -6.7827  -24.5963 H       1  UNL1        0.0618
     78 H         -16.3514   -8.5237  -26.1793 H       1  UNL1        0.0618
     79 H         -18.4674   -8.2829  -27.4291 H       1  UNL1        0.0618
     80 H         -19.8623   -6.3161  -27.0959 H       1  UNL1        0.0620
     81 H         -21.3567   -5.0018  -23.5212 H       1  UNL1        0.0612
     82 H         -21.7075   -6.5807  -25.7992 H       1  UNL1        0.2099
     83 H         -23.7121   -5.8049  -23.9006 H       1  UNL1        0.0309
     84 H         -23.7154   -5.0652  -25.4492 H       1  UNL1        0.0309
     85 H         -23.1953   -2.8152  -24.1007 H       1  UNL1        0.0502
     86 H         -25.5586   -2.4159  -23.5247 H       1  UNL1        0.0331
     87 H         -25.9022   -4.1138  -23.6996 H       1  UNL1        0.0331
     88 H         -27.7456   -3.2122  -25.1343 H       1  UNL1        0.0620
     89 H         -28.4433   -2.9420  -27.4784 H       1  UNL1        0.0618
     90 H         -26.7211   -2.6946  -29.2275 H       1  UNL1        0.0618
     91 H         -24.3363   -2.6245  -28.6296 H       1  UNL1        0.0618
     92 H         -23.6377   -2.8164  -26.3034 H       1  UNL1        0.0620
     93 H         -24.3632   -4.3237  -21.8295 H       1  UNL1        0.1491
     94 H         -23.3050   -2.6198  -19.5495 H       1  UNL1        0.0795
     95 H         -21.8203   -3.5591  -19.6153 H       1  UNL1        0.0795
     96 H         -23.4211   -8.4128  -20.7620 H       1  UNL1        0.0279
     97 H         -24.4774   -6.9968  -20.7900 H       1  UNL1        0.0279
     98 H         -22.8212   -6.8589  -21.3639 H       1  UNL1        0.0279
     99 H         -22.5240   -8.9423  -18.6230 H       1  UNL1        0.0621
    100 H         -21.7776   -8.3143  -16.3680 H       1  UNL1        0.0618
    101 H         -21.8591   -5.9680  -15.6417 H       1  UNL1        0.0621
    102 H         -21.8750   -3.2130  -17.2282 H       1  UNL1        0.0279
    103 H         -23.6459   -3.3274  -17.3579 H       1  UNL1        0.0279
    104 H         -22.8593   -3.8161  -15.8930 H       1  UNL1        0.0279
    105 H         -16.6093   -9.0622  -30.8378 H       1  UNL1        0.0625
    106 H         -15.7316  -10.7231  -32.4112 H       1  UNL1        0.0654
@<TRIPOS>BOND
     1     1     2    1
     2     1    54    1
     3     1    55    1
     4     1    56    1
     5     2     3    1
     6     3    53   ar
     7     3     4   ar
     8     4     5   ar
     9     4    57    1
    10     5     6   ar
    11     5    58    1
    12     6     7    1
    13     6    52   ar
    14     7     8    2
    15     7    59    1
    16     8     9    1
    17     8    60    1
    18     9    10    2
    19     9    11   am
    20    11    12    1
    21    11    61    1
    22    12    13    1
    23    12    17    1
    24    12    62    1
    25    13    14    1
    26    13    63    1
    27    13    64    1
    28    14    15    1
    29    14    16    1
    30    14    65    1
    31    15    66    1
    32    15    67    1
    33    15    68    1
    34    16    69    1
    35    16    70    1
    36    16    71    1
    37    17    18    2
    38    17    19   am
    39    19    20    1
    40    19    72    1
    41    20    21    1
    42    20    28    1
    43    20    73    1
    44    21    22    1
    45    21    74    1
    46    21    75    1
    47    22    27   ar
    48    22    23   ar
    49    23    24   ar
    50    23    76    1
    51    24    25   ar
    52    24    77    1
    53    25    26   ar
    54    25    78    1
    55    26    27   ar
    56    26    79    1
    57    27    80    1
    58    28    29    1
    59    28    30    1
    60    28    81    1
    61    29    82    1
    62    30    31    1
    63    30    83    1
    64    30    84    1
    65    31    32    1
    66    31    39    1
    67    31    85    1
    68    32    33    1
    69    32    86    1
    70    32    87    1
    71    33    38   ar
    72    33    34   ar
    73    34    35   ar
    74    34    88    1
    75    35    36   ar
    76    35    89    1
    77    36    37   ar
    78    36    90    1
    79    37    38   ar
    80    37    91    1
    81    38    92    1
    82    39    40   am
    83    39    93    1
    84    40    41    2
    85    40    42    1
    86    42    43    1
    87    42    94    1
    88    42    95    1
    89    43    44    1
    90    44    50   ar
    91    44    45   ar
    92    45    46    1
    93    45    47   ar
    94    46    96    1
    95    46    97    1
    96    46    98    1
    97    47    48   ar
    98    47    99    1
    99    48    49   ar
   100    48   100    1
   101    49    50   ar
   102    49   101    1
   103    50    51    1
   104    51   102    1
   105    51   103    1
   106    51   104    1
   107    52    53   ar
   108    52   105    1
   109    53   106    1
