@<TRIPOS>MOLECULE
*****
 69 70 0 0 0
SMALL
GASTEIGER
****
Schrodinger Suite 2019-4.
@<TRIPOS>ATOM
      1 C         -23.3675   -4.4615  -32.3090 C.3     1  UNL1       -0.0652
      2 C         -22.5400   -3.5100  -31.4273 C.3     1  UNL1       -0.0538
      3 C         -22.7213   -3.6923  -29.9017 C.3     1  UNL1       -0.0273
      4 C         -22.7611   -5.1516  -29.3454 C.3     1  UNL1        0.0907
      5 C         -22.7565   -5.1587  -27.8058 C.2     1  UNL1        0.2371
      6 O         -23.6505   -4.5716  -27.1905 O.2     1  UNL1       -0.2852
      7 C         -21.6108   -5.8768  -26.9536 C.2     1  UNL1        0.2817
      8 O         -20.8510   -6.7271  -27.4138 O.2     1  UNL1       -0.2670
      9 N         -21.6281   -5.5043  -25.6595 N.am    1  UNL1       -0.3033
     10 C         -20.7118   -6.0326  -24.6479 C.3     1  UNL1        0.0543
     11 C         -19.2725   -5.5687  -24.8094 C.ar    1  UNL1        0.0583
     12 C         -18.2505   -6.4664  -25.1390 C.ar    1  UNL1       -0.0388
     13 C         -16.9542   -5.9700  -25.2993 C.ar    1  UNL1       -0.0586
     14 C         -16.7181   -4.6049  -25.1289 C.ar    1  UNL1       -0.0436
     15 C         -17.7924   -3.7820  -24.7879 C.ar    1  UNL1        0.0279
     16 N         -19.0561   -4.2420  -24.6194 N.ar    1  UNL1       -0.2583
     17 N         -21.8612   -6.1232  -29.9957 N.am    1  UNL1       -0.3036
     18 C         -20.5577   -5.9672  -30.2820 C.2     1  UNL1        0.2340
     19 O         -19.8940   -4.9821  -29.9602 O.2     1  UNL1       -0.2738
     20 C         -19.8795   -7.1340  -31.0254 C.3     1  UNL1        0.1027
     21 C         -18.7754   -7.7558  -30.1309 C.3     1  UNL1       -0.0235
     22 C         -18.0798   -9.0213  -30.6844 C.3     1  UNL1       -0.0446
     23 C         -19.0615  -10.2065  -30.8326 C.3     1  UNL1       -0.0626
     24 C         -16.8380   -9.3815  -29.8398 C.3     1  UNL1       -0.0626
     25 N         -19.2511   -6.6572  -32.2592 N.am    1  UNL1       -0.2698
     26 C         -19.9406   -6.6071  -33.4572 C.2     1  UNL1        0.4012
     27 O         -21.1182   -6.9133  -33.6325 O.2     1  UNL1       -0.2265
     28 O         -19.0972   -6.1927  -34.4270 O.3     1  UNL1       -0.4456
     29 C         -19.4623   -6.2550  -35.8062 C.3     1  UNL1        0.1191
     30 C         -19.3523   -7.6784  -36.3402 C.ar    1  UNL1       -0.0103
     31 C         -20.4801   -8.5017  -36.3834 C.ar    1  UNL1       -0.0554
     32 C         -20.3736   -9.8058  -36.8574 C.ar    1  UNL1       -0.0614
     33 C         -19.1371  -10.2821  -37.2867 C.ar    1  UNL1       -0.0617
     34 C         -18.0096   -9.4634  -37.2537 C.ar    1  UNL1       -0.0614
     35 C         -18.1179   -8.1556  -36.7849 C.ar    1  UNL1       -0.0554
     36 H         -22.9309   -5.4577  -32.3519 H       1  UNL1        0.0230
     37 H         -24.3874   -4.5845  -31.9407 H       1  UNL1        0.0230
     38 H         -23.4298   -4.0867  -33.3262 H       1  UNL1        0.0230
     39 H         -22.7921   -2.4808  -31.6791 H       1  UNL1        0.0263
     40 H         -21.4844   -3.6070  -31.6853 H       1  UNL1        0.0263
     41 H         -23.6399   -3.1761  -29.6085 H       1  UNL1        0.0287
     42 H         -21.9127   -3.1383  -29.4166 H       1  UNL1        0.0287
     43 H         -23.7467   -5.5348  -29.6072 H       1  UNL1        0.0582
     44 H         -22.2911   -4.7971  -25.3725 H       1  UNL1        0.1495
     45 H         -20.7601   -7.1208  -24.6710 H       1  UNL1        0.0527
     46 H         -21.0763   -5.7262  -23.6668 H       1  UNL1        0.0527
     47 H         -18.4537   -7.5186  -25.2837 H       1  UNL1        0.0636
     48 H         -16.1415   -6.6338  -25.5658 H       1  UNL1        0.0619
     49 H         -15.7253   -4.1975  -25.2555 H       1  UNL1        0.0633
     50 H         -17.6569   -2.7193  -24.6415 H       1  UNL1        0.0829
     51 H         -22.2973   -6.9962  -30.2597 H       1  UNL1        0.1495
     52 H         -20.6154   -7.9124  -31.2419 H       1  UNL1        0.0596
     53 H         -19.2057   -7.9954  -29.1620 H       1  UNL1        0.0290
     54 H         -18.0143   -6.9953  -29.9352 H       1  UNL1        0.0290
     55 H         -17.7113   -8.7893  -31.6833 H       1  UNL1        0.0296
     56 H         -18.7008  -11.1213  -30.3611 H       1  UNL1        0.0232
     57 H         -20.0330   -9.9926  -30.3910 H       1  UNL1        0.0232
     58 H         -19.2251  -10.4364  -31.8849 H       1  UNL1        0.0232
     59 H         -15.9241   -9.2447  -30.4207 H       1  UNL1        0.0232
     60 H         -16.7435   -8.7491  -28.9571 H       1  UNL1        0.0232
     61 H         -16.8396  -10.4157  -29.4904 H       1  UNL1        0.0232
     62 H         -18.3037   -6.2960  -32.2051 H       1  UNL1        0.1528
     63 H         -18.7800   -5.6304  -36.3797 H       1  UNL1        0.0749
     64 H         -20.4662   -5.8543  -35.9725 H       1  UNL1        0.0749
     65 H         -21.4398   -8.1332  -36.0459 H       1  UNL1        0.0621
     66 H         -21.2442  -10.4451  -36.8863 H       1  UNL1        0.0618
     67 H         -19.0492  -11.2959  -37.6534 H       1  UNL1        0.0618
     68 H         -17.0566   -9.8400  -37.5979 H       1  UNL1        0.0618
     69 H         -17.2440   -7.5172  -36.7659 H       1  UNL1        0.0621
@<TRIPOS>BOND
     1     1     2    1
     2     1    36    1
     3     1    37    1
     4     1    38    1
     5     2     3    1
     6     2    39    1
     7     2    40    1
     8     3     4    1
     9     3    41    1
    10     3    42    1
    11     4     5    1
    12     4    17    1
    13     4    43    1
    14     5     6    2
    15     5     7    1
    16     7     8    2
    17     7     9   am
    18     9    10    1
    19     9    44    1
    20    10    11    1
    21    10    45    1
    22    10    46    1
    23    11    16   ar
    24    11    12   ar
    25    12    13   ar
    26    12    47    1
    27    13    14   ar
    28    13    48    1
    29    14    15   ar
    30    14    49    1
    31    15    16   ar
    32    15    50    1
    33    17    18   am
    34    17    51    1
    35    18    19    2
    36    18    20    1
    37    20    21    1
    38    20    25    1
    39    20    52    1
    40    21    22    1
    41    21    53    1
    42    21    54    1
    43    22    23    1
    44    22    24    1
    45    22    55    1
    46    23    56    1
    47    23    57    1
    48    23    58    1
    49    24    59    1
    50    24    60    1
    51    24    61    1
    52    25    26   am
    53    25    62    1
    54    26    27    2
    55    26    28    1
    56    28    29    1
    57    29    30    1
    58    29    63    1
    59    29    64    1
    60    30    35   ar
    61    30    31   ar
    62    31    32   ar
    63    31    65    1
    64    32    33   ar
    65    32    66    1
    66    33    34   ar
    67    33    67    1
    68    34    35   ar
    69    34    68    1
    70    35    69    1
