
                    3D
 Schrodinger Suite 2019-4.
 69 70  0  0  1  0            999 V2000
  -23.3675   -4.4615  -32.3090 C   0  0  0  0  0  0
  -22.5400   -3.5100  -31.4273 C   0  0  0  0  0  0
  -22.7213   -3.6923  -29.9017 C   0  0  0  0  0  0
  -22.7611   -5.1516  -29.3454 C   0  0  2  0  0  0
  -22.7565   -5.1587  -27.8058 C   0  0  0  0  0  0
  -23.6505   -4.5716  -27.1905 O   0  0  0  0  0  0
  -21.6108   -5.8768  -26.9536 C   0  0  0  0  0  0
  -20.8510   -6.7271  -27.4138 O   0  0  0  0  0  0
  -21.6281   -5.5043  -25.6595 N   0  0  0  0  0  0
  -20.7118   -6.0326  -24.6479 C   0  0  0  0  0  0
  -19.2725   -5.5687  -24.8094 C   0  0  0  0  0  0
  -18.2505   -6.4664  -25.1390 C   0  0  0  0  0  0
  -16.9542   -5.9700  -25.2993 C   0  0  0  0  0  0
  -16.7181   -4.6049  -25.1289 C   0  0  0  0  0  0
  -17.7924   -3.7820  -24.7879 C   0  0  0  0  0  0
  -19.0561   -4.2420  -24.6194 N   0  0  0  0  0  0
  -21.8612   -6.1232  -29.9957 N   0  0  0  0  0  0
  -20.5577   -5.9672  -30.2820 C   0  0  0  0  0  0
  -19.8940   -4.9821  -29.9602 O   0  0  0  0  0  0
  -19.8795   -7.1340  -31.0254 C   0  0  2  0  0  0
  -18.7754   -7.7558  -30.1309 C   0  0  0  0  0  0
  -18.0798   -9.0213  -30.6844 C   0  0  0  0  0  0
  -19.0615  -10.2065  -30.8326 C   0  0  0  0  0  0
  -16.8380   -9.3815  -29.8398 C   0  0  0  0  0  0
  -19.2511   -6.6572  -32.2592 N   0  0  0  0  0  0
  -19.9406   -6.6071  -33.4572 C   0  0  0  0  0  0
  -21.1182   -6.9133  -33.6325 O   0  0  0  0  0  0
  -19.0972   -6.1927  -34.4270 O   0  0  0  0  0  0
  -19.4623   -6.2550  -35.8062 C   0  0  0  0  0  0
  -19.3523   -7.6784  -36.3402 C   0  0  0  0  0  0
  -20.4801   -8.5017  -36.3834 C   0  0  0  0  0  0
  -20.3736   -9.8058  -36.8574 C   0  0  0  0  0  0
  -19.1371  -10.2821  -37.2867 C   0  0  0  0  0  0
  -18.0096   -9.4634  -37.2537 C   0  0  0  0  0  0
  -18.1179   -8.1556  -36.7849 C   0  0  0  0  0  0
  -22.9309   -5.4577  -32.3519 H   0  0  0  0  0  0
  -24.3874   -4.5845  -31.9407 H   0  0  0  0  0  0
  -23.4298   -4.0867  -33.3262 H   0  0  0  0  0  0
  -22.7921   -2.4808  -31.6791 H   0  0  0  0  0  0
  -21.4844   -3.6070  -31.6853 H   0  0  0  0  0  0
  -23.6399   -3.1761  -29.6085 H   0  0  0  0  0  0
  -21.9127   -3.1383  -29.4166 H   0  0  0  0  0  0
  -23.7467   -5.5348  -29.6072 H   0  0  0  0  0  0
  -22.2911   -4.7971  -25.3725 H   0  0  0  0  0  0
  -20.7601   -7.1208  -24.6710 H   0  0  0  0  0  0
  -21.0763   -5.7262  -23.6668 H   0  0  0  0  0  0
  -18.4537   -7.5186  -25.2837 H   0  0  0  0  0  0
  -16.1415   -6.6338  -25.5658 H   0  0  0  0  0  0
  -15.7253   -4.1975  -25.2555 H   0  0  0  0  0  0
  -17.6569   -2.7193  -24.6415 H   0  0  0  0  0  0
  -22.2973   -6.9962  -30.2597 H   0  0  0  0  0  0
  -20.6154   -7.9124  -31.2419 H   0  0  0  0  0  0
  -19.2057   -7.9954  -29.1620 H   0  0  0  0  0  0
  -18.0143   -6.9953  -29.9352 H   0  0  0  0  0  0
  -17.7113   -8.7893  -31.6833 H   0  0  0  0  0  0
  -18.7008  -11.1213  -30.3611 H   0  0  0  0  0  0
  -20.0330   -9.9926  -30.3910 H   0  0  0  0  0  0
  -19.2251  -10.4364  -31.8849 H   0  0  0  0  0  0
  -15.9241   -9.2447  -30.4207 H   0  0  0  0  0  0
  -16.7435   -8.7491  -28.9571 H   0  0  0  0  0  0
  -16.8396  -10.4157  -29.4904 H   0  0  0  0  0  0
  -18.3037   -6.2960  -32.2051 H   0  0  0  0  0  0
  -18.7800   -5.6304  -36.3797 H   0  0  0  0  0  0
  -20.4662   -5.8543  -35.9725 H   0  0  0  0  0  0
  -21.4398   -8.1332  -36.0459 H   0  0  0  0  0  0
  -21.2442  -10.4451  -36.8863 H   0  0  0  0  0  0
  -19.0492  -11.2959  -37.6534 H   0  0  0  0  0  0
  -17.0566   -9.8400  -37.5979 H   0  0  0  0  0  0
  -17.2440   -7.5172  -36.7659 H   0  0  0  0  0  0
  1  2  1  0  0  0
  1 36  1  0  0  0
  1 37  1  0  0  0
  1 38  1  0  0  0
  2  3  1  0  0  0
  2 39  1  0  0  0
  2 40  1  0  0  0
  3  4  1  0  0  0
  3 41  1  0  0  0
  3 42  1  0  0  0
  4  5  1  0  0  0
  4 17  1  0  0  0
  4 43  1  0  0  0
  5  6  2  0  0  0
  5  7  1  0  0  0
  7  8  2  0  0  0
  7  9  1  0  0  0
  9 10  1  0  0  0
  9 44  1  0  0  0
 10 11  1  0  0  0
 10 45  1  0  0  0
 10 46  1  0  0  0
 11 16  1  0  0  0
 11 12  2  0  0  0
 12 13  1  0  0  0
 12 47  1  0  0  0
 13 14  2  0  0  0
 13 48  1  0  0  0
 14 15  1  0  0  0
 14 49  1  0  0  0
 15 16  2  0  0  0
 15 50  1  0  0  0
 17 18  1  0  0  0
 17 51  1  0  0  0
 18 19  2  0  0  0
 18 20  1  0  0  0
 20 21  1  0  0  0
 20 25  1  0  0  0
 20 52  1  0  0  0
 21 22  1  0  0  0
 21 53  1  0  0  0
 21 54  1  0  0  0
 22 23  1  0  0  0
 22 24  1  0  0  0
 22 55  1  0  0  0
 23 56  1  0  0  0
 23 57  1  0  0  0
 23 58  1  0  0  0
 24 59  1  0  0  0
 24 60  1  0  0  0
 24 61  1  0  0  0
 25 26  1  0  0  0
 25 62  1  0  0  0
 26 27  2  0  0  0
 26 28  1  0  0  0
 28 29  1  0  0  0
 29 30  1  0  0  0
 29 63  1  0  0  0
 29 64  1  0  0  0
 30 35  1  0  0  0
 30 31  2  0  0  0
 31 32  1  0  0  0
 31 65  1  0  0  0
 32 33  2  0  0  0
 32 66  1  0  0  0
 33 34  1  0  0  0
 33 67  1  0  0  0
 34 35  2  0  0  0
 34 68  1  0  0  0
 35 69  1  0  0  0
M  END
$$$$
