@<TRIPOS>MOLECULE
*****
 101 101 0 0 0
SMALL
GASTEIGER
****
Schrodinger Suite 2019-4.
@<TRIPOS>ATOM
      1 C         -28.5170   -8.1201  -19.8032 C.3     1  UNL1       -0.0639
      2 C         -29.2057   -8.3337  -21.1530 C.3     1  UNL1       -0.0400
      3 C         -28.1810   -8.4556  -22.2918 C.3     1  UNL1        0.0144
      4 N         -27.3842   -7.2328  -22.4439 N.am    1  UNL1       -0.3015
      5 C         -27.9523   -6.2262  -23.3627 C.3     1  UNL1        0.0144
      6 C         -27.9962   -6.7372  -24.8166 C.3     1  UNL1       -0.0400
      7 C         -28.5966   -5.7387  -25.8040 C.3     1  UNL1       -0.0639
      8 C         -26.2076   -7.0976  -21.7785 C.2     1  UNL1        0.2156
      9 O         -25.8066   -7.9142  -20.9485 O.2     1  UNL1       -0.2756
     10 C         -25.3379   -5.8873  -22.0975 C.3     1  UNL1        0.0262
     11 C         -23.8709   -6.1617  -22.4585 C.3     1  UNL1       -0.0190
     12 C         -23.3610   -4.9314  -23.2227 C.3     1  UNL1        0.0909
     13 N         -22.2369   -5.3015  -24.0500 N.am    1  UNL1       -0.3038
     14 C         -21.6233   -4.4349  -24.8548 C.2     1  UNL1        0.2339
     15 O         -22.0627   -3.3131  -25.1031 O.2     1  UNL1       -0.2738
     16 C         -20.3629   -4.9634  -25.5211 C.3     1  UNL1        0.0996
     17 C         -19.0806   -4.4277  -24.8708 C.3     1  UNL1       -0.0236
     18 C         -17.8334   -5.1710  -25.4027 C.3     1  UNL1       -0.0446
     19 C         -17.8523   -6.6716  -25.0790 C.3     1  UNL1       -0.0626
     20 C         -16.5654   -4.5541  -24.8480 C.3     1  UNL1       -0.0626
     21 N         -20.4037   -4.5686  -26.9134 N.am    1  UNL1       -0.3025
     22 C         -21.4101   -4.9157  -27.7217 C.2     1  UNL1        0.2342
     23 O         -22.3676   -5.6061  -27.3623 O.2     1  UNL1       -0.2738
     24 C         -21.2715   -4.4892  -29.1696 C.3     1  UNL1        0.1017
     25 N         -20.7730   -5.6915  -29.8058 N.am    1  UNL1       -0.3022
     26 C         -20.2958   -5.7382  -31.0460 C.2     1  UNL1        0.2338
     27 O         -20.4711   -4.8350  -31.8618 O.2     1  UNL1       -0.2738
     28 C         -19.5048   -6.9992  -31.3963 C.3     1  UNL1        0.0997
     29 C         -18.4084   -7.1977  -30.3408 C.3     1  UNL1       -0.0380
     30 N         -18.9191   -6.8413  -32.7199 N.am    1  UNL1       -0.2701
     31 C         -19.6111   -7.1957  -33.8606 C.2     1  UNL1        0.4012
     32 O         -20.6995   -7.7719  -33.8902 O.2     1  UNL1       -0.2265
     33 O         -18.9462   -6.7747  -34.9349 O.3     1  UNL1       -0.4456
     34 C         -19.5135   -7.0044  -36.2133 C.3     1  UNL1        0.1191
     35 C         -19.5590   -8.4752  -36.5607 C.ar    1  UNL1       -0.0103
     36 C         -18.3682   -9.2085  -36.7463 C.ar    1  UNL1       -0.0554
     37 C         -18.4272  -10.5658  -37.1070 C.ar    1  UNL1       -0.0614
     38 C         -19.6753  -11.1948  -37.2767 C.ar    1  UNL1       -0.0617
     39 C         -20.8652  -10.4668  -37.0811 C.ar    1  UNL1       -0.0614
     40 C         -20.8057   -9.1093  -36.7190 C.ar    1  UNL1       -0.0554
     41 C         -22.5760   -3.9611  -29.8153 C.3     1  UNL1       -0.0197
     42 C         -23.1501   -2.7155  -29.1130 C.3     1  UNL1       -0.0605
     43 C         -23.6325   -5.0768  -29.8318 C.3     1  UNL1       -0.0605
     44 C         -22.8951   -3.8349  -22.2908 C.2     1  UNL1        0.2553
     45 O         -21.7194   -3.5407  -22.1171 O.2     1  UNL1       -0.2860
     46 C         -23.9881   -2.9409  -21.8075 C.3     1  UNL1        0.4525
     47 F         -23.5797   -2.3074  -20.7093 F       1  UNL1       -0.1633
     48 F         -24.3416   -2.0852  -22.7644 F       1  UNL1       -0.1633
     49 F         -25.0075   -3.7342  -21.5099 F       1  UNL1       -0.1633
     50 H         -29.2390   -8.0836  -18.9907 H       1  UNL1        0.0230
     51 H         -27.8121   -8.9217  -19.5838 H       1  UNL1        0.0230
     52 H         -27.9639   -7.1811  -19.7921 H       1  UNL1        0.0230
     53 H         -29.8914   -7.5072  -21.3422 H       1  UNL1        0.0278
     54 H         -29.8162   -9.2343  -21.0993 H       1  UNL1        0.0278
     55 H         -28.6956   -8.7076  -23.2191 H       1  UNL1        0.0464
     56 H         -27.5255   -9.3085  -22.1042 H       1  UNL1        0.0464
     57 H         -27.3613   -5.3099  -23.3391 H       1  UNL1        0.0464
     58 H         -28.9397   -5.9075  -23.0318 H       1  UNL1        0.0464
     59 H         -28.5556   -7.6654  -24.8864 H       1  UNL1        0.0278
     60 H         -26.9882   -6.9740  -25.1522 H       1  UNL1        0.0278
     61 H         -28.6833   -6.1959  -26.7871 H       1  UNL1        0.0230
     62 H         -29.5926   -5.4141  -25.5113 H       1  UNL1        0.0230
     63 H         -27.9599   -4.8597  -25.9028 H       1  UNL1        0.0230
     64 H         -25.3440   -5.2461  -21.2210 H       1  UNL1        0.0359
     65 H         -25.8057   -5.3448  -22.9194 H       1  UNL1        0.0359
     66 H         -23.7702   -7.0695  -23.0555 H       1  UNL1        0.0292
     67 H         -23.3037   -6.3206  -21.5407 H       1  UNL1        0.0292
     68 H         -24.1693   -4.5352  -23.8397 H       1  UNL1        0.0580
     69 H         -21.8476   -6.2256  -23.9343 H       1  UNL1        0.1494
     70 H         -20.3692   -6.0526  -25.4610 H       1  UNL1        0.0594
     71 H         -19.1307   -4.5279  -23.7848 H       1  UNL1        0.0290
     72 H         -18.9917   -3.3592  -25.0684 H       1  UNL1        0.0290
     73 H         -17.7828   -5.0609  -26.4878 H       1  UNL1        0.0296
     74 H         -16.9446   -7.1602  -25.4347 H       1  UNL1        0.0232
     75 H         -17.9191   -6.8448  -24.0067 H       1  UNL1        0.0232
     76 H         -18.6902   -7.1834  -25.5492 H       1  UNL1        0.0232
     77 H         -15.6723   -5.0716  -25.1894 H       1  UNL1        0.0232
     78 H         -16.4933   -3.5191  -25.1752 H       1  UNL1        0.0232
     79 H         -16.5771   -4.6038  -23.7592 H       1  UNL1        0.0232
     80 H         -19.6538   -3.9940  -27.2717 H       1  UNL1        0.1495
     81 H         -20.5175   -3.6998  -29.2224 H       1  UNL1        0.0597
     82 H         -20.6301   -6.4933  -29.2072 H       1  UNL1        0.1495
     83 H         -20.1679   -7.8674  -31.3922 H       1  UNL1        0.0593
     84 H         -17.6898   -7.9609  -30.6418 H       1  UNL1        0.0252
     85 H         -17.8701   -6.2771  -30.1479 H       1  UNL1        0.0252
     86 H         -18.8376   -7.5065  -29.3875 H       1  UNL1        0.0252
     87 H         -18.0551   -6.3255  -32.8325 H       1  UNL1        0.1528
     88 H         -18.9205   -6.4981  -36.9654 H       1  UNL1        0.0749
     89 H         -20.5117   -6.5708  -36.2868 H       1  UNL1        0.0749
     90 H         -17.4049   -8.7451  -36.6234 H       1  UNL1        0.0621
     91 H         -17.5139  -11.1209  -37.2564 H       1  UNL1        0.0618
     92 H         -19.7212  -12.2367  -37.5584 H       1  UNL1        0.0618
     93 H         -21.8241  -10.9476  -37.2096 H       1  UNL1        0.0618
     94 H         -21.7160   -8.5499  -36.5716 H       1  UNL1        0.0621
     95 H         -22.3665   -3.6797  -30.8487 H       1  UNL1        0.0318
     96 H         -24.0964   -2.4167  -29.5624 H       1  UNL1        0.0233
     97 H         -23.3348   -2.9026  -28.0544 H       1  UNL1        0.0233
     98 H         -22.4788   -1.8599  -29.1935 H       1  UNL1        0.0233
     99 H         -24.5161   -4.7806  -30.3897 H       1  UNL1        0.0233
    100 H         -23.2558   -5.9934  -30.2791 H       1  UNL1        0.0233
    101 H         -23.9475   -5.3260  -28.8177 H       1  UNL1        0.0233
@<TRIPOS>BOND
     1     1     2    1
     2     1    50    1
     3     1    51    1
     4     1    52    1
     5     2     3    1
     6     2    53    1
     7     2    54    1
     8     3     4    1
     9     3    55    1
    10     3    56    1
    11     4     5    1
    12     4     8   am
    13     5     6    1
    14     5    57    1
    15     5    58    1
    16     6     7    1
    17     6    59    1
    18     6    60    1
    19     7    61    1
    20     7    62    1
    21     7    63    1
    22     8     9    2
    23     8    10    1
    24    10    11    1
    25    10    64    1
    26    10    65    1
    27    11    12    1
    28    11    66    1
    29    11    67    1
    30    12    13    1
    31    12    44    1
    32    12    68    1
    33    13    14   am
    34    13    69    1
    35    14    15    2
    36    14    16    1
    37    16    17    1
    38    16    21    1
    39    16    70    1
    40    17    18    1
    41    17    71    1
    42    17    72    1
    43    18    19    1
    44    18    20    1
    45    18    73    1
    46    19    74    1
    47    19    75    1
    48    19    76    1
    49    20    77    1
    50    20    78    1
    51    20    79    1
    52    21    22   am
    53    21    80    1
    54    22    23    2
    55    22    24    1
    56    24    25    1
    57    24    41    1
    58    24    81    1
    59    25    26   am
    60    25    82    1
    61    26    27    2
    62    26    28    1
    63    28    29    1
    64    28    30    1
    65    28    83    1
    66    29    84    1
    67    29    85    1
    68    29    86    1
    69    30    31   am
    70    30    87    1
    71    31    32    2
    72    31    33    1
    73    33    34    1
    74    34    35    1
    75    34    88    1
    76    34    89    1
    77    35    40   ar
    78    35    36   ar
    79    36    37   ar
    80    36    90    1
    81    37    38   ar
    82    37    91    1
    83    38    39   ar
    84    38    92    1
    85    39    40   ar
    86    39    93    1
    87    40    94    1
    88    41    42    1
    89    41    43    1
    90    41    95    1
    91    42    96    1
    92    42    97    1
    93    42    98    1
    94    43    99    1
    95    43   100    1
    96    43   101    1
    97    44    45    2
    98    44    46    1
    99    46    47    1
   100    46    48    1
   101    46    49    1
