@<TRIPOS>MOLECULE
*****
 74 77 0 0 0
SMALL
GASTEIGER
****
Schrodinger Suite 2019-4.
@<TRIPOS>ATOM
      1 C         -17.7459  -11.4300  -36.7607 C.3     1  UNL1        0.0788
      2 O         -19.0133  -10.9543  -36.3319 O.3     1  UNL1       -0.4951
      3 C         -19.0528  -10.1145  -35.2401 C.ar    1  UNL1        0.1201
      4 C         -20.3050   -9.5671  -34.8973 C.ar    1  UNL1       -0.0194
      5 C         -20.4249   -8.6682  -33.8219 C.ar    1  UNL1       -0.0511
      6 C         -19.2922   -8.2971  -33.0663 C.ar    1  UNL1       -0.0246
      7 C         -19.4649   -7.3169  -31.9858 C.2     1  UNL1       -0.0497
      8 C         -20.5374   -6.5359  -31.7451 C.2     1  UNL1        0.0007
      9 C         -20.5002   -5.6146  -30.6237 C.2     1  UNL1        0.2375
     10 O         -19.4972   -5.3611  -29.9533 O.2     1  UNL1       -0.2708
     11 N         -21.6926   -5.0414  -30.3830 N.am    1  UNL1       -0.3005
     12 C         -21.9258   -4.0437  -29.3303 C.3     1  UNL1        0.0999
     13 C         -23.3910   -3.5521  -29.3489 C.3     1  UNL1       -0.0236
     14 C         -23.7444   -2.4998  -30.4273 C.3     1  UNL1       -0.0446
     15 C         -23.9813   -3.0905  -31.8252 C.3     1  UNL1       -0.0626
     16 C         -22.6566   -1.4243  -30.5098 C.3     1  UNL1       -0.0626
     17 C         -21.5781   -4.6167  -27.9426 C.2     1  UNL1        0.2339
     18 O         -21.9232   -5.7602  -27.6425 O.2     1  UNL1       -0.2738
     19 N         -20.8628   -3.8279  -27.1258 N.am    1  UNL1       -0.3037
     20 C         -20.2803   -4.2458  -25.8511 C.3     1  UNL1        0.0888
     21 C         -18.7596   -4.0089  -25.8624 C.3     1  UNL1       -0.0160
     22 C         -17.9338   -5.1350  -26.4848 C.3     1  UNL1        0.0390
     23 C         -18.6362   -6.5047  -26.5322 C.3     1  UNL1       -0.0262
     24 C         -17.5663   -7.5289  -26.1373 C.3     1  UNL1        0.0123
     25 N         -16.5604   -6.7415  -25.4587 N.am    1  UNL1       -0.3151
     26 C         -16.7272   -5.4325  -25.6103 C.2     1  UNL1        0.2162
     27 O         -16.0225   -4.5596  -25.1105 O.2     1  UNL1       -0.2755
     28 C         -20.8712   -3.4629  -24.6895 C.2     1  UNL1        0.2079
     29 O         -20.2536   -2.5596  -24.1314 O.2     1  UNL1       -0.2879
     30 C         -22.1941   -3.8557  -24.1726 C.ar    1  UNL1        0.1465
     31 N         -23.1128   -3.0223  -23.6778 N.ar    1  UNL1       -0.2360
     32 C         -24.0965   -3.7559  -23.0331 C.ar    1  UNL1        0.0790
     33 C         -25.1906   -3.2446  -22.3138 C.ar    1  UNL1       -0.0352
     34 C         -26.0758   -4.1037  -21.6529 C.ar    1  UNL1       -0.0597
     35 C         -25.9342   -5.4991  -21.7367 C.ar    1  UNL1       -0.0606
     36 C         -24.8697   -6.0377  -22.4759 C.ar    1  UNL1       -0.0459
     37 C         -23.9589   -5.1729  -23.1058 C.ar    1  UNL1        0.0396
     38 S         -22.5464   -5.5800  -24.0634 S.2     1  UNL1       -0.0643
     39 C         -18.0441   -8.8749  -33.3804 C.ar    1  UNL1       -0.0511
     40 C         -17.9219   -9.7729  -34.4569 C.ar    1  UNL1       -0.0194
     41 H         -17.8751  -12.0565  -37.6435 H       1  UNL1        0.0660
     42 H         -17.0812  -10.6090  -37.0328 H       1  UNL1        0.0660
     43 H         -17.2708  -12.0408  -35.9919 H       1  UNL1        0.0660
     44 H         -21.1808   -9.8303  -35.4718 H       1  UNL1        0.0654
     45 H         -21.3947   -8.2533  -33.5873 H       1  UNL1        0.0625
     46 H         -18.6202   -7.2480  -31.3165 H       1  UNL1        0.0625
     47 H         -21.4124   -6.5823  -32.3752 H       1  UNL1        0.0669
     48 H         -22.4807   -5.3016  -30.9571 H       1  UNL1        0.1498
     49 H         -21.2743   -3.1946  -29.5277 H       1  UNL1        0.0595
     50 H         -23.6158   -3.1337  -28.3676 H       1  UNL1        0.0290
     51 H         -24.0637   -4.4042  -29.4665 H       1  UNL1        0.0290
     52 H         -24.6654   -2.0069  -30.1141 H       1  UNL1        0.0296
     53 H         -24.2274   -2.3014  -32.5321 H       1  UNL1        0.0232
     54 H         -23.1046   -3.6222  -32.1963 H       1  UNL1        0.0232
     55 H         -24.8266   -3.7757  -31.8358 H       1  UNL1        0.0232
     56 H         -23.0217   -0.5342  -31.0234 H       1  UNL1        0.0232
     57 H         -22.3113   -1.1389  -29.5187 H       1  UNL1        0.0232
     58 H         -21.7914   -1.7866  -31.0635 H       1  UNL1        0.0232
     59 H         -20.6511   -2.8903  -27.4437 H       1  UNL1        0.1495
     60 H         -20.4785   -5.3004  -25.6707 H       1  UNL1        0.0582
     61 H         -18.3972   -3.8915  -24.8375 H       1  UNL1        0.0295
     62 H         -18.5383   -3.0654  -26.3653 H       1  UNL1        0.0295
     63 H         -17.5863   -4.8543  -27.4799 H       1  UNL1        0.0395
     64 H         -19.0652   -6.7188  -27.5124 H       1  UNL1        0.0288
     65 H         -19.4469   -6.5480  -25.8028 H       1  UNL1        0.0288
     66 H         -17.1187   -7.9988  -27.0146 H       1  UNL1        0.0462
     67 H         -17.9667   -8.3096  -25.4893 H       1  UNL1        0.0462
     68 H         -15.7943   -7.1566  -24.9445 H       1  UNL1        0.1487
     69 H         -25.3513   -2.1835  -22.2505 H       1  UNL1        0.0639
     70 H         -26.8671   -3.6643  -21.0792 H       1  UNL1        0.0618
     71 H         -26.6321   -6.1514  -21.2330 H       1  UNL1        0.0618
     72 H         -24.7475   -7.1076  -22.5533 H       1  UNL1        0.0629
     73 H         -17.1632   -8.6268  -32.8112 H       1  UNL1        0.0625
     74 H         -16.9447  -10.1797  -34.6668 H       1  UNL1        0.0654
@<TRIPOS>BOND
     1     1     2    1
     2     1    41    1
     3     1    42    1
     4     1    43    1
     5     2     3    1
     6     3    40   ar
     7     3     4   ar
     8     4     5   ar
     9     4    44    1
    10     5     6   ar
    11     5    45    1
    12     6     7    1
    13     6    39   ar
    14     7     8    2
    15     7    46    1
    16     8     9    1
    17     8    47    1
    18     9    10    2
    19     9    11   am
    20    11    12    1
    21    11    48    1
    22    12    13    1
    23    12    17    1
    24    12    49    1
    25    13    14    1
    26    13    50    1
    27    13    51    1
    28    14    15    1
    29    14    16    1
    30    14    52    1
    31    15    53    1
    32    15    54    1
    33    15    55    1
    34    16    56    1
    35    16    57    1
    36    16    58    1
    37    17    18    2
    38    17    19   am
    39    19    20    1
    40    19    59    1
    41    20    21    1
    42    20    28    1
    43    20    60    1
    44    21    22    1
    45    21    61    1
    46    21    62    1
    47    22    26    1
    48    22    23    1
    49    22    63    1
    50    23    24    1
    51    23    64    1
    52    23    65    1
    53    24    25    1
    54    24    66    1
    55    24    67    1
    56    25    26   am
    57    25    68    1
    58    26    27    2
    59    28    29    2
    60    28    30    1
    61    30    38   ar
    62    30    31   ar
    63    31    32   ar
    64    32    37   ar
    65    32    33   ar
    66    33    34   ar
    67    33    69    1
    68    34    35   ar
    69    34    70    1
    70    35    36   ar
    71    35    71    1
    72    36    37   ar
    73    36    72    1
    74    37    38   ar
    75    39    40   ar
    76    39    73    1
    77    40    74    1
