
                    3D
 Schrodinger Suite 2019-4.
 74 77  0  0  1  0            999 V2000
  -17.7459  -11.4300  -36.7607 C   0  0  0  0  0  0
  -19.0133  -10.9543  -36.3319 O   0  0  0  0  0  0
  -19.0528  -10.1145  -35.2401 C   0  0  0  0  0  0
  -20.3050   -9.5671  -34.8973 C   0  0  0  0  0  0
  -20.4249   -8.6682  -33.8219 C   0  0  0  0  0  0
  -19.2922   -8.2971  -33.0663 C   0  0  0  0  0  0
  -19.4649   -7.3169  -31.9858 C   0  0  0  0  0  0
  -20.5374   -6.5359  -31.7451 C   0  0  0  0  0  0
  -20.5002   -5.6146  -30.6237 C   0  0  0  0  0  0
  -19.4972   -5.3611  -29.9533 O   0  0  0  0  0  0
  -21.6926   -5.0414  -30.3830 N   0  0  0  0  0  0
  -21.9258   -4.0437  -29.3303 C   0  0  1  0  0  0
  -23.3910   -3.5521  -29.3489 C   0  0  0  0  0  0
  -23.7444   -2.4998  -30.4273 C   0  0  0  0  0  0
  -23.9813   -3.0905  -31.8252 C   0  0  0  0  0  0
  -22.6566   -1.4243  -30.5098 C   0  0  0  0  0  0
  -21.5781   -4.6167  -27.9426 C   0  0  0  0  0  0
  -21.9232   -5.7602  -27.6425 O   0  0  0  0  0  0
  -20.8628   -3.8279  -27.1258 N   0  0  0  0  0  0
  -20.2803   -4.2458  -25.8511 C   0  0  1  0  0  0
  -18.7596   -4.0089  -25.8624 C   0  0  0  0  0  0
  -17.9338   -5.1350  -26.4848 C   0  0  2  0  0  0
  -18.6362   -6.5047  -26.5322 C   0  0  0  0  0  0
  -17.5663   -7.5289  -26.1373 C   0  0  0  0  0  0
  -16.5604   -6.7415  -25.4587 N   0  0  0  0  0  0
  -16.7272   -5.4325  -25.6103 C   0  0  0  0  0  0
  -16.0225   -4.5596  -25.1105 O   0  0  0  0  0  0
  -20.8712   -3.4629  -24.6895 C   0  0  0  0  0  0
  -20.2536   -2.5596  -24.1314 O   0  0  0  0  0  0
  -22.1941   -3.8557  -24.1726 C   0  0  0  0  0  0
  -23.1128   -3.0223  -23.6778 N   0  0  0  0  0  0
  -24.0965   -3.7559  -23.0331 C   0  0  0  0  0  0
  -25.1906   -3.2446  -22.3138 C   0  0  0  0  0  0
  -26.0758   -4.1037  -21.6529 C   0  0  0  0  0  0
  -25.9342   -5.4991  -21.7367 C   0  0  0  0  0  0
  -24.8697   -6.0377  -22.4759 C   0  0  0  0  0  0
  -23.9589   -5.1729  -23.1058 C   0  0  0  0  0  0
  -22.5464   -5.5800  -24.0634 S   0  0  0  0  0  0
  -18.0441   -8.8749  -33.3804 C   0  0  0  0  0  0
  -17.9219   -9.7729  -34.4569 C   0  0  0  0  0  0
  -17.8751  -12.0565  -37.6435 H   0  0  0  0  0  0
  -17.0812  -10.6090  -37.0328 H   0  0  0  0  0  0
  -17.2708  -12.0408  -35.9919 H   0  0  0  0  0  0
  -21.1808   -9.8303  -35.4718 H   0  0  0  0  0  0
  -21.3947   -8.2533  -33.5873 H   0  0  0  0  0  0
  -18.6202   -7.2480  -31.3165 H   0  0  0  0  0  0
  -21.4124   -6.5823  -32.3752 H   0  0  0  0  0  0
  -22.4807   -5.3016  -30.9571 H   0  0  0  0  0  0
  -21.2743   -3.1946  -29.5277 H   0  0  0  0  0  0
  -23.6158   -3.1337  -28.3676 H   0  0  0  0  0  0
  -24.0637   -4.4042  -29.4665 H   0  0  0  0  0  0
  -24.6654   -2.0069  -30.1141 H   0  0  0  0  0  0
  -24.2274   -2.3014  -32.5321 H   0  0  0  0  0  0
  -23.1046   -3.6222  -32.1963 H   0  0  0  0  0  0
  -24.8266   -3.7757  -31.8358 H   0  0  0  0  0  0
  -23.0217   -0.5342  -31.0234 H   0  0  0  0  0  0
  -22.3113   -1.1389  -29.5187 H   0  0  0  0  0  0
  -21.7914   -1.7866  -31.0635 H   0  0  0  0  0  0
  -20.6511   -2.8903  -27.4437 H   0  0  0  0  0  0
  -20.4785   -5.3004  -25.6707 H   0  0  0  0  0  0
  -18.3972   -3.8915  -24.8375 H   0  0  0  0  0  0
  -18.5383   -3.0654  -26.3653 H   0  0  0  0  0  0
  -17.5863   -4.8543  -27.4799 H   0  0  0  0  0  0
  -19.0652   -6.7188  -27.5124 H   0  0  0  0  0  0
  -19.4469   -6.5480  -25.8028 H   0  0  0  0  0  0
  -17.1187   -7.9988  -27.0146 H   0  0  0  0  0  0
  -17.9667   -8.3096  -25.4893 H   0  0  0  0  0  0
  -15.7943   -7.1566  -24.9445 H   0  0  0  0  0  0
  -25.3513   -2.1835  -22.2505 H   0  0  0  0  0  0
  -26.8671   -3.6643  -21.0792 H   0  0  0  0  0  0
  -26.6321   -6.1514  -21.2330 H   0  0  0  0  0  0
  -24.7475   -7.1076  -22.5533 H   0  0  0  0  0  0
  -17.1632   -8.6268  -32.8112 H   0  0  0  0  0  0
  -16.9447  -10.1797  -34.6668 H   0  0  0  0  0  0
  1  2  1  0  0  0
  1 41  1  0  0  0
  1 42  1  0  0  0
  1 43  1  0  0  0
  2  3  1  0  0  0
  3 40  1  0  0  0
  3  4  2  0  0  0
  4  5  1  0  0  0
  4 44  1  0  0  0
  5  6  2  0  0  0
  5 45  1  0  0  0
  6  7  1  0  0  0
  6 39  1  0  0  0
  7  8  2  0  0  0
  7 46  1  0  0  0
  8  9  1  0  0  0
  8 47  1  0  0  0
  9 10  2  0  0  0
  9 11  1  0  0  0
 11 12  1  0  0  0
 11 48  1  0  0  0
 12 13  1  0  0  0
 12 17  1  0  0  0
 12 49  1  0  0  0
 13 14  1  0  0  0
 13 50  1  0  0  0
 13 51  1  0  0  0
 14 15  1  0  0  0
 14 16  1  0  0  0
 14 52  1  0  0  0
 15 53  1  0  0  0
 15 54  1  0  0  0
 15 55  1  0  0  0
 16 56  1  0  0  0
 16 57  1  0  0  0
 16 58  1  0  0  0
 17 18  2  0  0  0
 17 19  1  0  0  0
 19 20  1  0  0  0
 19 59  1  0  0  0
 20 21  1  0  0  0
 20 28  1  0  0  0
 20 60  1  0  0  0
 21 22  1  0  0  0
 21 61  1  0  0  0
 21 62  1  0  0  0
 22 26  1  0  0  0
 22 23  1  0  0  0
 22 63  1  0  0  0
 23 24  1  0  0  0
 23 64  1  0  0  0
 23 65  1  0  0  0
 24 25  1  0  0  0
 24 66  1  0  0  0
 24 67  1  0  0  0
 25 26  1  0  0  0
 25 68  1  0  0  0
 26 27  2  0  0  0
 28 29  2  0  0  0
 28 30  1  0  0  0
 30 38  1  0  0  0
 30 31  2  0  0  0
 31 32  1  0  0  0
 32 37  2  0  0  0
 32 33  1  0  0  0
 33 34  2  0  0  0
 33 69  1  0  0  0
 34 35  1  0  0  0
 34 70  1  0  0  0
 35 36  2  0  0  0
 35 71  1  0  0  0
 36 37  1  0  0  0
 36 72  1  0  0  0
 37 38  1  0  0  0
 39 40  2  0  0  0
 39 73  1  0  0  0
 40 74  1  0  0  0
M  END
$$$$
