@<TRIPOS>MOLECULE
/home/lixiaoshuang.lxs/med/data/m_pro/PDB_BA/6lze/6lze_ligand.pdb
 33 36 0 0 0
SMALL
GASTEIGER

@<TRIPOS>ATOM
      1  C02      -11.0830   11.7600   69.3590 C.2   405  FHR405      0.2829
      2  C07       -8.8320    6.5530   71.7340 C.ar  405  FHR405      0.0001
      3  C08       -9.7530    5.9820   70.8560 C.ar  405  FHR405      0.0015
      4  C09      -10.5340    6.7920   70.0550 C.ar  405  FHR405      0.0191
      5  C10      -10.3970    8.1990   70.1370 C.ar  405  FHR405      0.0815
      6  C05       -9.4980    8.7610   71.0020 C.ar  405  FHR405      0.0193
      7  C06       -8.6980    7.9330   71.8170 C.ar  405  FHR405      0.0015
      8  C04       -9.6060   10.1730   70.8390 C.ar  405  FHR405      0.0253
      9  C03      -10.5660   10.3860   69.8640 C.ar  405  FHR405      0.1361
     10  N11      -11.0410    9.2060   69.4690 N.ar  405  FHR405     -0.2407
     11  O01      -11.8350   11.8220   68.4630 O.2   405  FHR405     -0.2667
     12  N12      -10.6630   12.9840   70.0780 N.am  405  FHR405     -0.1927
     13  C13      -11.1930   14.2290   69.6460 C.3   405  FHR405      0.1731
     14  C21      -10.6590   14.6440   68.2820 C.2   405  FHR405      0.2616
     15  O33       -9.5420   14.4340   67.9630 O.2   405  FHR405     -0.2715
     16  C14      -10.8320   15.3420   70.6690 C.3   405  FHR405      0.0311
     17  C15      -11.3190   14.9990   72.1400 C.3   405  FHR405      0.0022
     18  C20      -12.8430   14.8290   72.1550 C.3   405  FHR405      0.0001
     19  C19      -13.3430   14.5690   73.5790 C.3   405  FHR405      0.0000
     20  C18      -12.9120   15.6810   74.5330 C.3   405  FHR405      0.0000
     21  C17      -11.3970   15.9260   74.4930 C.3   405  FHR405      0.0000
     22  C16      -10.8970   16.1450   73.0630 C.3   405  FHR405      0.0001
     23  O30      -13.0700   12.6520   63.7130 O.2   405  FHR405     -0.2734
     24  C29      -11.9210   12.6210   63.9400 C.2   405  FHR405      0.2410
     25  N28      -10.8570   11.7420   63.2490 N.am  405  FHR405     -0.2054
     26  C27       -9.7510   12.0320   63.8080 C.3   405  FHR405      0.1156
     27  C26       -9.9790   13.4930   64.6670 C.3   405  FHR405      0.0326
     28  C25      -11.1290   13.4970   65.0330 C.3   405  FHR405      0.0821
     29  C24      -11.7600   15.0090   64.9790 C.3   405  FHR405      0.0389
     30  C23      -11.1790   15.8570   66.1250 C.3   405  FHR405      0.1601
     31  N22      -11.6030   15.3620   67.4490 N.am  405  FHR405     -0.1977
     32  C31      -11.4790   17.3370   65.9110 C.2   405  FHR405      0.2287
     33  O32      -10.9880   17.8740   64.9780 O.2   405  FHR405     -0.2864
@<TRIPOS>BOND
     1    25    26    1
     2    25    24   am
     3    23    24    2
     4    26    27    1
     5    24    28    1
     6    27    28    1
     7    33    32    2
     8    29    28    1
     9    29    30    1
    10    32    30    1
    11    30    31    1
    12    31    14   am
    13    15    14    2
    14    14    13    1
    15    11     1    2
    16     1     9    1
    17     1    12   am
    18    10     9   ar
    19    10     5   ar
    20    13    12    1
    21    13    16    1
    22     9     8   ar
    23     4     5   ar
    24     4     3   ar
    25     5     6   ar
    26    16    17    1
    27     8     6   ar
    28     3     2   ar
    29     6     7   ar
    30     2     7   ar
    31    17    18    1
    32    17    22    1
    33    18    19    1
    34    22    21    1
    35    19    20    1
    36    21    20    1
