
                    3D
 Schrodinger Suite 2019-4.
 73 74  0  0  1  0            999 V2000
  -23.5385   -0.9034  -30.6016 C   0  0  0  0  0  0
  -22.9079   -2.3015  -30.6201 C   0  0  0  0  0  0
  -23.6000   -3.1598  -31.7020 C   0  0  0  0  0  0
  -22.9237   -2.9514  -29.2114 C   0  0  0  0  0  0
  -21.7220   -3.8774  -28.8925 C   0  0  2  0  0  0
  -21.6727   -4.9849  -29.8414 N   0  0  0  0  0  0
  -20.5771   -5.7117  -30.1330 C   0  0  0  0  0  0
  -19.4319   -5.3646  -29.8319 O   0  0  0  0  0  0
  -20.8517   -7.1089  -30.7601 C   0  0  2  0  0  0
  -19.6720   -7.8458  -31.2332 N   0  0  0  0  0  0
  -19.0018   -7.7492  -32.3939 C   0  0  0  0  0  0
  -19.2599   -6.9480  -33.2936 O   0  0  0  0  0  0
  -17.9422   -8.8028  -32.5734 C   0  0  0  0  0  0
  -17.1056   -9.1764  -31.5095 C   0  0  0  0  0  0
  -16.1881  -10.2097  -31.6713 C   0  0  0  0  0  0
  -16.1119  -10.8765  -32.8907 C   0  0  0  0  0  0
  -16.9126  -10.4953  -33.9628 C   0  0  0  0  0  0
  -17.8212   -9.4533  -33.8077 C   0  0  0  0  0  0
  -22.1054   -7.1495  -31.7108 C   0  0  0  0  0  0
  -22.3901   -8.5524  -32.2777 C   0  0  0  0  0  0
  -22.1406   -6.1037  -32.8467 C   0  0  0  0  0  0
  -21.8412   -4.4791  -27.4777 C   0  0  0  0  0  0
  -22.6349   -5.4032  -27.2806 O   0  0  0  0  0  0
  -21.0333   -3.9746  -26.5288 N   0  0  0  0  0  0
  -20.8567   -4.5532  -25.1842 C   0  0  2  0  0  0
  -21.7214   -3.7490  -24.2334 C   0  0  0  0  0  0
  -21.5407   -3.7315  -23.0149 O   0  0  0  0  0  0
  -19.3656   -4.5861  -24.7539 C   0  0  0  0  0  0
  -18.4943   -5.5780  -25.5796 C   0  0  2  0  0  0
  -18.8778   -7.0558  -25.3234 C   0  0  0  0  0  0
  -17.8676   -7.9965  -25.9719 C   0  0  0  0  0  0
  -16.4841   -7.7759  -25.3417 C   0  0  0  0  0  0
  -16.1422   -6.3462  -25.2930 N   0  0  0  0  0  0
  -16.9790   -5.2850  -25.3419 C   0  0  0  0  0  0
  -16.5130   -4.1491  -25.2930 O   0  0  0  0  0  0
  -22.8877   -0.1824  -30.1060 H   0  0  0  0  0  0
  -23.7098   -0.5485  -31.6166 H   0  0  0  0  0  0
  -24.5023   -0.9085  -30.0935 H   0  0  0  0  0  0
  -21.8656   -2.1669  -30.9148 H   0  0  0  0  0  0
  -23.8904   -4.1417  -31.3293 H   0  0  0  0  0  0
  -24.5057   -2.6873  -32.0922 H   0  0  0  0  0  0
  -22.9342   -3.3078  -32.5524 H   0  0  0  0  0  0
  -23.8728   -3.4630  -29.0445 H   0  0  0  0  0  0
  -22.9031   -2.1485  -28.4728 H   0  0  0  0  0  0
  -20.7973   -3.3064  -28.9673 H   0  0  0  0  0  0
  -22.5739   -5.3407  -30.1174 H   0  0  0  0  0  0
  -21.1258   -7.6991  -29.8853 H   0  0  0  0  0  0
  -19.3284   -8.5286  -30.5719 H   0  0  0  0  0  0
  -17.1605   -8.6746  -30.5532 H   0  0  0  0  0  0
  -15.5475  -10.4968  -30.8502 H   0  0  0  0  0  0
  -15.4080  -11.6877  -33.0095 H   0  0  0  0  0  0
  -16.8338  -11.0114  -34.9087 H   0  0  0  0  0  0
  -18.4553   -9.1819  -34.6404 H   0  0  0  0  0  0
  -22.9698   -6.9316  -31.0810 H   0  0  0  0  0  0
  -23.3113   -8.5489  -32.8550 H   0  0  0  0  0  0
  -21.5958   -8.8963  -32.9419 H   0  0  0  0  0  0
  -22.5005   -9.2882  -31.4797 H   0  0  0  0  0  0
  -23.1692   -5.8157  -33.0626 H   0  0  0  0  0  0
  -21.5942   -5.1918  -32.6091 H   0  0  0  0  0  0
  -21.7127   -6.5014  -33.7661 H   0  0  0  0  0  0
  -20.4347   -3.1947  -26.7675 H   0  0  0  0  0  0
  -21.2426   -5.5740  -25.1489 H   0  0  0  0  0  0
  -22.5342   -3.1833  -24.6925 H   0  0  0  0  0  0
  -19.2824   -4.8566  -23.6985 H   0  0  0  0  0  0
  -18.9694   -3.5705  -24.8290 H   0  0  0  0  0  0
  -18.6112   -5.3736  -26.6453 H   0  0  0  0  0  0
  -19.8714   -7.2750  -25.7154 H   0  0  0  0  0  0
  -18.9025   -7.2577  -24.2501 H   0  0  0  0  0  0
  -17.8205   -7.8244  -27.0485 H   0  0  0  0  0  0
  -18.1718   -9.0366  -25.8469 H   0  0  0  0  0  0
  -15.7121   -8.3137  -25.8957 H   0  0  0  0  0  0
  -16.4689   -8.1443  -24.3139 H   0  0  0  0  0  0
  -15.1532   -6.1386  -25.2113 H   0  0  0  0  0  0
  1  2  1  0  0  0
  1 36  1  0  0  0
  1 37  1  0  0  0
  1 38  1  0  0  0
  2  3  1  0  0  0
  2  4  1  0  0  0
  2 39  1  0  0  0
  3 40  1  0  0  0
  3 41  1  0  0  0
  3 42  1  0  0  0
  4  5  1  0  0  0
  4 43  1  0  0  0
  4 44  1  0  0  0
  5  6  1  0  0  0
  5 22  1  0  0  0
  5 45  1  0  0  0
  6  7  1  0  0  0
  6 46  1  0  0  0
  7  8  2  0  0  0
  7  9  1  0  0  0
  9 10  1  0  0  0
  9 19  1  0  0  0
  9 47  1  0  0  0
 10 11  1  0  0  0
 10 48  1  0  0  0
 11 12  2  0  0  0
 11 13  1  0  0  0
 13 18  1  0  0  0
 13 14  2  0  0  0
 14 15  1  0  0  0
 14 49  1  0  0  0
 15 16  2  0  0  0
 15 50  1  0  0  0
 16 17  1  0  0  0
 16 51  1  0  0  0
 17 18  2  0  0  0
 17 52  1  0  0  0
 18 53  1  0  0  0
 19 20  1  0  0  0
 19 21  1  0  0  0
 19 54  1  0  0  0
 20 55  1  0  0  0
 20 56  1  0  0  0
 20 57  1  0  0  0
 21 58  1  0  0  0
 21 59  1  0  0  0
 21 60  1  0  0  0
 22 23  2  0  0  0
 22 24  1  0  0  0
 24 25  1  0  0  0
 24 61  1  0  0  0
 25 26  1  0  0  0
 25 28  1  0  0  0
 25 62  1  0  0  0
 26 27  2  0  0  0
 26 63  1  0  0  0
 28 29  1  0  0  0
 28 64  1  0  0  0
 28 65  1  0  0  0
 29 34  1  0  0  0
 29 30  1  0  0  0
 29 66  1  0  0  0
 30 31  1  0  0  0
 30 67  1  0  0  0
 30 68  1  0  0  0
 31 32  1  0  0  0
 31 69  1  0  0  0
 31 70  1  0  0  0
 32 33  1  0  0  0
 32 71  1  0  0  0
 32 72  1  0  0  0
 33 34  1  0  0  0
 33 73  1  0  0  0
 34 35  2  0  0  0
M  END
$$$$
