@<TRIPOS>MOLECULE
*****
 73 74 0 0 0
SMALL
GASTEIGER
****
Schrodinger Suite 2019-4.
@<TRIPOS>ATOM
      1 CD1       -23.5385   -0.9034  -30.6016 C.3     1  VAL1       -0.0626
      2 CG        -22.9079   -2.3015  -30.6201 C.3     1  VAL1       -0.0446
      3 CD2       -23.6000   -3.1598  -31.7020 C.3     1  VAL1       -0.0626
      4 CB        -22.9237   -2.9514  -29.2114 C.3     1  VAL1       -0.0236
      5 CA        -21.7220   -3.8774  -28.8925 C.3     1  VAL1        0.0996
      6 N         -21.6727   -4.9849  -29.8414 N.am    1  VAL1       -0.3025
      7 C         -20.5771   -5.7117  -30.1330 C.2     1  VAL1        0.2342
      8 O         -19.4319   -5.3646  -29.8319 O.2     1  VAL1       -0.2738
      9 CA        -20.8517   -7.1089  -30.7601 C.3     1  VAL1        0.1020
     10 N         -19.6720   -7.8458  -31.2332 N.am    1  VAL1       -0.2998
     11 C         -19.0018   -7.7492  -32.3939 C.2     0  UNK0        0.2447
     12 O         -19.2599   -6.9480  -33.2936 O.2     0  UNK0       -0.2702
     13 C         -17.9422   -8.8028  -32.5734 C.ar    0  UNK0        0.0367
     14 C         -17.1056   -9.1764  -31.5095 C.ar    0  UNK0       -0.0496
     15 C         -16.1881  -10.2097  -31.6713 C.ar    0  UNK0       -0.0610
     16 C         -16.1119  -10.8765  -32.8907 C.ar    0  UNK0       -0.0617
     17 C         -16.9126  -10.4953  -33.9628 C.ar    0  UNK0       -0.0610
     18 C         -17.8212   -9.4533  -33.8077 C.ar    0  UNK0       -0.0496
     19 CB        -22.1054   -7.1495  -31.7108 C.3     1  VAL1       -0.0197
     20 CG1       -22.3901   -8.5524  -32.2777 C.3     1  VAL1       -0.0605
     21 CG2       -22.1406   -6.1037  -32.8467 C.3     1  VAL1       -0.0605
     22 C         -21.8412   -4.4791  -27.4777 C.2     1  VAL1        0.2339
     23 O         -22.6349   -5.4032  -27.2806 O.2     1  VAL1       -0.2738
     24 N         -21.0333   -3.9746  -26.5288 N.am    2  UNK2       -0.3044
     25 C         -20.8567   -4.5532  -25.1842 C.3     2  UNK2        0.0791
     26 C         -21.7214   -3.7490  -24.2334 C.2     2  UNK2        0.1404
     27 O         -21.5407   -3.7315  -23.0149 O.2     2  UNK2       -0.2991
     28 C         -19.3656   -4.5861  -24.7539 C.3     2  UNK2       -0.0168
     29 C         -18.4943   -5.5780  -25.5796 C.3     2  UNK2        0.0377
     30 C         -18.8778   -7.0558  -25.3234 C.3     2  UNK2       -0.0404
     31 C         -17.8676   -7.9965  -25.9719 C.3     2  UNK2       -0.0367
     32 C         -16.4841   -7.7759  -25.3417 C.3     2  UNK2        0.0116
     33 N         -16.1422   -6.3462  -25.2930 N.am    2  UNK2       -0.3151
     34 C         -16.9790   -5.2850  -25.3419 C.2     2  UNK2        0.2162
     35 O         -16.5130   -4.1491  -25.2930 O.2     2  UNK2       -0.2755
     36 HD11      -22.8877   -0.1824  -30.1060 H       1  VAL1        0.0232
     37 HD12      -23.7098   -0.5485  -31.6166 H       1  VAL1        0.0232
     38 HD13      -24.5023   -0.9085  -30.0935 H       1  VAL1        0.0232
     39 HG        -21.8656   -2.1669  -30.9148 H       1  VAL1        0.0296
     40 HD21      -23.8904   -4.1417  -31.3293 H       1  VAL1        0.0232
     41 HD22      -24.5057   -2.6873  -32.0922 H       1  VAL1        0.0232
     42 HD23      -22.9342   -3.3078  -32.5524 H       1  VAL1        0.0232
     43 HB1       -23.8728   -3.4630  -29.0445 H       1  VAL1        0.0290
     44 HB2       -22.9031   -2.1485  -28.4728 H       1  VAL1        0.0290
     45 HA        -20.7973   -3.3064  -28.9673 H       1  VAL1        0.0594
     46 H         -22.5739   -5.3407  -30.1174 H       1  VAL1        0.1495
     47 HA        -21.1258   -7.6991  -29.8853 H       1  VAL1        0.0597
     48 H         -19.3284   -8.5286  -30.5719 H       1  VAL1        0.1498
     49 H         -17.1605   -8.6746  -30.5532 H       0  UNK0        0.0625
     50 H         -15.5475  -10.4968  -30.8502 H       0  UNK0        0.0618
     51 H         -15.4080  -11.6877  -33.0095 H       0  UNK0        0.0618
     52 H         -16.8338  -11.0114  -34.9087 H       0  UNK0        0.0618
     53 H         -18.4553   -9.1819  -34.6404 H       0  UNK0        0.0625
     54 HB        -22.9698   -6.9316  -31.0810 H       1  VAL1        0.0318
     55 HG11      -23.3113   -8.5489  -32.8550 H       1  VAL1        0.0233
     56 HG12      -21.5958   -8.8963  -32.9419 H       1  VAL1        0.0233
     57 HG13      -22.5005   -9.2882  -31.4797 H       1  VAL1        0.0233
     58 HG21      -23.1692   -5.8157  -33.0626 H       1  VAL1        0.0233
     59 HG22      -21.5942   -5.1918  -32.6091 H       1  VAL1        0.0233
     60 HG23      -21.7127   -6.5014  -33.7661 H       1  VAL1        0.0233
     61 H         -20.4347   -3.1947  -26.7675 H       2  UNK2        0.1494
     62 H         -21.2426   -5.5740  -25.1489 H       2  UNK2        0.0574
     63 H         -22.5342   -3.1833  -24.6925 H       2  UNK2        0.1046
     64 H         -19.2824   -4.8566  -23.6985 H       2  UNK2        0.0294
     65 H         -18.9694   -3.5705  -24.8290 H       2  UNK2        0.0294
     66 H         -18.6112   -5.3736  -26.6453 H       2  UNK2        0.0395
     67 H         -19.8714   -7.2750  -25.7154 H       2  UNK2        0.0273
     68 H         -18.9025   -7.2577  -24.2501 H       2  UNK2        0.0273
     69 H         -17.8205   -7.8244  -27.0485 H       2  UNK2        0.0280
     70 H         -18.1718   -9.0366  -25.8469 H       2  UNK2        0.0280
     71 H         -15.7121   -8.3137  -25.8957 H       2  UNK2        0.0462
     72 H         -16.4689   -8.1443  -24.3139 H       2  UNK2        0.0462
     73 H         -15.1532   -6.1386  -25.2113 H       2  UNK2        0.1487
@<TRIPOS>BOND
     1     1     2    1
     2     1    36    1
     3     1    37    1
     4     1    38    1
     5     2     3    1
     6     2     4    1
     7     2    39    1
     8     3    40    1
     9     3    41    1
    10     3    42    1
    11     4     5    1
    12     4    43    1
    13     4    44    1
    14     5     6    1
    15     5    22    1
    16     5    45    1
    17     6     7   am
    18     6    46    1
    19     7     8    2
    20     7     9    1
    21     9    10    1
    22     9    19    1
    23     9    47    1
    24    10    11   am
    25    10    48    1
    26    11    12    2
    27    11    13    1
    28    13    18   ar
    29    13    14   ar
    30    14    15   ar
    31    14    49    1
    32    15    16   ar
    33    15    50    1
    34    16    17   ar
    35    16    51    1
    36    17    18   ar
    37    17    52    1
    38    18    53    1
    39    19    20    1
    40    19    21    1
    41    19    54    1
    42    20    55    1
    43    20    56    1
    44    20    57    1
    45    21    58    1
    46    21    59    1
    47    21    60    1
    48    22    23    2
    49    22    24   am
    50    24    25    1
    51    24    61    1
    52    25    26    1
    53    25    28    1
    54    25    62    1
    55    26    27    2
    56    26    63    1
    57    28    29    1
    58    28    64    1
    59    28    65    1
    60    29    34    1
    61    29    30    1
    62    29    66    1
    63    30    31    1
    64    30    67    1
    65    30    68    1
    66    31    32    1
    67    31    69    1
    68    31    70    1
    69    32    33    1
    70    32    71    1
    71    32    72    1
    72    33    34   am
    73    33    73    1
    74    34    35    2
