
                    3D
 Schrodinger Suite 2019-4.
 57 62  0  0  1  0            999 V2000
  -24.3068  -13.0665  -26.4084 O   0  0  0  0  0  0
  -24.4717  -12.2431  -27.3073 C   0  0  0  0  0  0
  -25.1631  -10.9743  -27.0502 C   0  0  0  0  0  0
  -25.3132  -10.0384  -28.0151 C   0  0  0  0  0  0
  -25.8795   -8.6942  -27.7868 C   0  0  0  0  0  0
  -27.0678   -8.5687  -27.0289 C   0  0  0  0  0  0
  -27.7540   -7.3419  -26.9883 C   0  0  0  0  0  0
  -27.2534   -6.2354  -27.6953 C   0  0  0  0  0  0
  -27.9651   -5.0731  -27.6880 O   0  0  0  0  0  0
  -26.0260   -6.3245  -28.3922 C   0  0  0  0  0  0
  -25.4166   -5.1511  -29.0408 C   0  0  0  0  0  0
  -25.6747   -4.7386  -30.3574 C   0  0  0  0  0  0
  -26.5493   -5.4348  -31.0961 O   0  5  0  0  0  0
  -25.0472   -3.6187  -30.9283 C   0  0  0  0  0  0
  -24.1278   -2.8788  -30.1736 C   0  0  0  0  0  0
  -23.5408   -1.7851  -30.7471 O   0  0  0  0  0  0
  -23.8449   -3.2934  -28.8456 C   0  0  0  0  0  0
  -22.8892   -2.6096  -27.9690 C   0  0  0  0  0  0
  -22.1068   -1.7818  -28.4169 O   0  0  0  0  0  0
  -22.9171   -2.9965  -26.5464 C   0  0  0  0  0  0
  -23.6124   -4.0830  -26.1474 C   0  0  0  0  0  0
  -23.6182   -4.6752  -24.8176 C   0  0  0  0  0  0
  -22.5199   -4.4590  -23.9585 C   0  0  0  0  0  0
  -22.5127   -5.0216  -22.6717 C   0  0  0  0  0  0
  -23.6066   -5.7874  -22.2369 C   0  0  0  0  0  0
  -23.5503   -6.3772  -21.0100 O   0  0  0  0  0  0
  -24.7242   -5.9464  -23.0811 C   0  0  0  0  0  0
  -24.7236   -5.3998  -24.3687 C   0  0  0  0  0  0
  -24.2407   -4.8755  -27.0475 O   0  0  0  0  0  0
  -24.4967   -4.4135  -28.3019 C   0  0  0  0  0  0
  -25.3383   -7.5514  -28.4125 C   0  0  0  0  0  0
  -24.8417  -10.2485  -29.2870 O   0  0  0  0  0  0
  -24.0294  -11.3186  -29.5618 C   0  0  0  0  0  0
  -23.3091  -11.3027  -30.7671 C   0  0  0  0  0  0
  -22.4773  -12.3836  -31.1026 C   0  0  0  0  0  0
  -21.7026  -12.3184  -32.2217 O   0  0  0  0  0  0
  -22.4608  -13.5317  -30.2903 C   0  0  0  0  0  0
  -23.1878  -13.5619  -29.0838 C   0  0  0  0  0  0
  -23.1603  -14.7065  -28.3370 O   0  0  0  0  0  0
  -23.9040  -12.4069  -28.6698 C   0  0  0  0  0  0
  -25.4934  -10.8145  -26.0388 H   0  0  0  0  0  0
  -27.5018   -9.4170  -26.5200 H   0  0  0  0  0  0
  -28.6829   -7.2573  -26.4447 H   0  0  0  0  0  0
  -28.7577   -5.1515  -27.1776 H   0  0  0  0  0  0
  -25.2730   -3.3292  -31.9472 H   0  0  0  0  0  0
  -23.8637   -1.6206  -31.6210 H   0  0  0  0  0  0
  -22.3396   -2.4123  -25.8516 H   0  0  0  0  0  0
  -21.6697   -3.8825  -24.2891 H   0  0  0  0  0  0
  -21.6554   -4.8832  -22.0300 H   0  0  0  0  0  0
  -22.8259   -6.0745  -20.4818 H   0  0  0  0  0  0
  -25.5883   -6.5158  -22.8015 H   0  0  0  0  0  0
  -25.5818   -5.5068  -25.0019 H   0  0  0  0  0  0
  -24.4129   -7.5989  -28.9636 H   0  0  0  0  0  0
  -23.3845  -10.4431  -31.4155 H   0  0  0  0  0  0
  -21.6932  -11.4596  -32.6170 H   0  0  0  0  0  0
  -21.8750  -14.3884  -30.5879 H   0  0  0  0  0  0
  -23.6909  -14.6394  -27.5547 H   0  0  0  0  0  0
  1  2  2  0  0  0
  2 40  1  0  0  0
  2  3  1  0  0  0
  3  4  2  0  0  0
  3 41  1  0  0  0
  4  5  1  0  0  0
  4 32  1  0  0  0
  5 31  1  0  0  0
  5  6  2  0  0  0
  6  7  1  0  0  0
  6 42  1  0  0  0
  7  8  2  0  0  0
  7 43  1  0  0  0
  8  9  1  0  0  0
  8 10  1  0  0  0
  9 44  1  0  0  0
 10 11  1  0  0  0
 10 31  2  0  0  0
 11 30  1  0  0  0
 11 12  2  0  0  0
 12 13  1  0  0  0
 12 14  1  0  0  0
 14 15  2  0  0  0
 14 45  1  0  0  0
 15 16  1  0  0  0
 15 17  1  0  0  0
 16 46  1  0  0  0
 17 30  2  0  0  0
 17 18  1  0  0  0
 18 19  2  0  0  0
 18 20  1  0  0  0
 20 21  2  0  0  0
 20 47  1  0  0  0
 21 22  1  0  0  0
 21 29  1  0  0  0
 22 28  1  0  0  0
 22 23  2  0  0  0
 23 24  1  0  0  0
 23 48  1  0  0  0
 24 25  2  0  0  0
 24 49  1  0  0  0
 25 26  1  0  0  0
 25 27  1  0  0  0
 26 50  1  0  0  0
 27 28  2  0  0  0
 27 51  1  0  0  0
 28 52  1  0  0  0
 29 30  1  0  0  0
 31 53  1  0  0  0
 32 33  1  0  0  0
 33 40  2  0  0  0
 33 34  1  0  0  0
 34 35  2  0  0  0
 34 54  1  0  0  0
 35 36  1  0  0  0
 35 37  1  0  0  0
 36 55  1  0  0  0
 37 38  2  0  0  0
 37 56  1  0  0  0
 38 39  1  0  0  0
 38 40  1  0  0  0
 39 57  1  0  0  0
M  CHG  1  13  -1
M  END
$$$$
