@<TRIPOS>MOLECULE
*****
 57 62 0 0 0
SMALL
GASTEIGER
****
Schrodinger Suite 2019-4.
@<TRIPOS>ATOM
      1 O         -24.3068  -13.0665  -26.4084 O.2     1  UNL1       -0.2869
      2 C         -24.4717  -12.2431  -27.3073 C.ar    1  UNL1        0.1966
      3 C         -25.1631  -10.9743  -27.0502 C.ar    1  UNL1        0.0288
      4 C         -25.3132  -10.0384  -28.0151 C.ar    1  UNL1        0.1392
      5 C         -25.8795   -8.6942  -27.7868 C.ar    1  UNL1        0.0182
      6 C         -27.0678   -8.5687  -27.0289 C.ar    1  UNL1       -0.0476
      7 C         -27.7540   -7.3419  -26.9883 C.ar    1  UNL1       -0.0189
      8 C         -27.2534   -6.2354  -27.6953 C.ar    1  UNL1        0.1247
      9 O         -27.9651   -5.0731  -27.6880 O.3     1  UNL1       -0.5062
     10 C         -26.0260   -6.3245  -28.3922 C.ar    1  UNL1        0.0272
     11 C         -25.4166   -5.1511  -29.0408 C.ar    1  UNL1        0.0212
     12 C         -25.6747   -4.7386  -30.3574 C.ar    1  UNL1       -0.0934
     13 O         -26.5493   -5.4348  -31.0961 O.co2   1  UNL1       -0.8731
     14 C         -25.0472   -3.6187  -30.9283 C.ar    1  UNL1       -0.0264
     15 C         -24.1278   -2.8788  -30.1736 C.ar    1  UNL1        0.1307
     16 O         -23.5408   -1.7851  -30.7471 O.3     1  UNL1       -0.5060
     17 C         -23.8449   -3.2934  -28.8456 C.ar    1  UNL1        0.1058
     18 C         -22.8892   -2.6096  -27.9690 C.ar    1  UNL1        0.1966
     19 O         -22.1068   -1.7818  -28.4169 O.2     1  UNL1       -0.2869
     20 C         -22.9171   -2.9965  -26.5464 C.ar    1  UNL1        0.0288
     21 C         -23.6124   -4.0830  -26.1474 C.ar    1  UNL1        0.1393
     22 C         -23.6182   -4.6752  -24.8176 C.ar    1  UNL1        0.0176
     23 C         -22.5199   -4.4590  -23.9585 C.ar    1  UNL1       -0.0476
     24 C         -22.5127   -5.0216  -22.6717 C.ar    1  UNL1       -0.0195
     25 C         -23.6066   -5.7874  -22.2369 C.ar    1  UNL1        0.1169
     26 O         -23.5503   -6.3772  -21.0100 O.3     1  UNL1       -0.5068
     27 C         -24.7242   -5.9464  -23.0811 C.ar    1  UNL1       -0.0195
     28 C         -24.7236   -5.3998  -24.3687 C.ar    1  UNL1       -0.0476
     29 O         -24.2407   -4.8755  -27.0475 O.2     1  UNL1       -0.4539
     30 C         -24.4967   -4.4135  -28.3019 C.ar    1  UNL1        0.1500
     31 C         -25.3383   -7.5514  -28.4125 C.ar    1  UNL1       -0.0398
     32 O         -24.8417  -10.2485  -29.2870 O.2     1  UNL1       -0.4544
     33 C         -24.0294  -11.3186  -29.5618 C.ar    1  UNL1        0.1462
     34 C         -23.3091  -11.3027  -30.7671 C.ar    1  UNL1        0.0231
     35 C         -22.4773  -12.3836  -31.1026 C.ar    1  UNL1        0.1239
     36 O         -21.7026  -12.3184  -32.2217 O.3     1  UNL1       -0.5065
     37 C         -22.4608  -13.5317  -30.2903 C.ar    1  UNL1        0.0223
     38 C         -23.1878  -13.5619  -29.0838 C.ar    1  UNL1        0.1347
     39 O         -23.1603  -14.7065  -28.3370 O.3     1  UNL1       -0.5058
     40 C         -23.9040  -12.4069  -28.6698 C.ar    1  UNL1        0.1055
     41 H         -25.4934  -10.8145  -26.0388 H       1  UNL1        0.0693
     42 H         -27.5018   -9.4170  -26.5200 H       1  UNL1        0.0626
     43 H         -28.6829   -7.2573  -26.4447 H       1  UNL1        0.0654
     44 H         -28.7577   -5.1515  -27.1776 H       1  UNL1        0.2922
     45 H         -25.2730   -3.3292  -31.9472 H       1  UNL1        0.0648
     46 H         -23.8637   -1.6206  -31.6210 H       1  UNL1        0.2922
     47 H         -22.3396   -2.4123  -25.8516 H       1  UNL1        0.0693
     48 H         -21.6697   -3.8825  -24.2891 H       1  UNL1        0.0626
     49 H         -21.6554   -4.8832  -22.0300 H       1  UNL1        0.0654
     50 H         -22.8259   -6.0745  -20.4818 H       1  UNL1        0.2921
     51 H         -25.5883   -6.5158  -22.8015 H       1  UNL1        0.0654
     52 H         -25.5818   -5.5068  -25.0019 H       1  UNL1        0.0626
     53 H         -24.4129   -7.5989  -28.9636 H       1  UNL1        0.0632
     54 H         -23.3845  -10.4431  -31.4155 H       1  UNL1        0.0691
     55 H         -21.6932  -11.4596  -32.6170 H       1  UNL1        0.2921
     56 H         -21.8750  -14.3884  -30.5879 H       1  UNL1        0.0691
     57 H         -23.6909  -14.6394  -27.5547 H       1  UNL1        0.2922
@<TRIPOS>BOND
     1     1     2    2
     2     2    40   ar
     3     2     3   ar
     4     3     4   ar
     5     3    41    1
     6     4     5    1
     7     4    32   ar
     8     5    31   ar
     9     5     6   ar
    10     6     7   ar
    11     6    42    1
    12     7     8   ar
    13     7    43    1
    14     8     9    1
    15     8    10   ar
    16     9    44    1
    17    10    11    1
    18    10    31   ar
    19    11    30   ar
    20    11    12   ar
    21    12    13    1
    22    12    14   ar
    23    14    15   ar
    24    14    45    1
    25    15    16    1
    26    15    17   ar
    27    16    46    1
    28    17    30   ar
    29    17    18   ar
    30    18    19    2
    31    18    20   ar
    32    20    21   ar
    33    20    47    1
    34    21    22    1
    35    21    29   ar
    36    22    28   ar
    37    22    23   ar
    38    23    24   ar
    39    23    48    1
    40    24    25   ar
    41    24    49    1
    42    25    26    1
    43    25    27   ar
    44    26    50    1
    45    27    28   ar
    46    27    51    1
    47    28    52    1
    48    29    30   ar
    49    31    53    1
    50    32    33   ar
    51    33    40   ar
    52    33    34   ar
    53    34    35   ar
    54    34    54    1
    55    35    36    1
    56    35    37   ar
    57    36    55    1
    58    37    38   ar
    59    37    56    1
    60    38    39    1
    61    38    40   ar
    62    39    57    1
