@<TRIPOS>MOLECULE
*****
 70 73 0 0 0
SMALL
GASTEIGER
****
Schrodinger Suite 2019-4.
@<TRIPOS>ATOM
      1 C         -22.4519   -2.3179  -30.9504 C.3     1  UNL1       -0.0626
      2 C         -23.4155   -3.2982  -30.2681 C.3     1  UNL1       -0.0446
      3 C         -24.8043   -2.6691  -30.1995 C.3     1  UNL1       -0.0626
      4 C         -22.9649   -3.7422  -28.8583 C.3     1  UNL1       -0.0235
      5 C         -21.5228   -4.2803  -28.7527 C.3     1  UNL1        0.1027
      6 N         -21.2981   -5.3803  -29.6937 N.am    1  UNL1       -0.2698
      7 C         -20.0359   -5.8926  -29.9423 C.2     1  UNL1        0.4012
      8 O         -18.9727   -5.3833  -29.5949 O.2     1  UNL1       -0.2265
      9 O         -20.1500   -7.1024  -30.5044 O.3     1  UNL1       -0.4456
     10 C         -18.9988   -7.9362  -30.6177 C.3     1  UNL1        0.1191
     11 C         -18.5561   -8.6134  -29.3222 C.ar    1  UNL1       -0.0103
     12 C         -17.3353   -9.3192  -29.3011 C.ar    1  UNL1       -0.0554
     13 C         -16.9495  -10.0425  -28.1548 C.ar    1  UNL1       -0.0614
     14 C         -17.7897  -10.0800  -27.0262 C.ar    1  UNL1       -0.0617
     15 C         -18.9932   -9.3526  -27.0281 C.ar    1  UNL1       -0.0614
     16 C         -19.3624   -8.6053  -28.1623 C.ar    1  UNL1       -0.0554
     17 C         -21.2766   -4.7996  -27.3261 C.2     1  UNL1        0.2340
     18 O         -21.5733   -5.9630  -27.0406 O.2     1  UNL1       -0.2738
     19 N         -20.7286   -3.9493  -26.4412 N.am    1  UNL1       -0.3037
     20 C         -20.2942   -4.3451  -25.0958 C.3     1  UNL1        0.0888
     21 C         -18.7687   -4.1370  -24.9792 C.3     1  UNL1       -0.0160
     22 C         -17.9892   -5.2953  -25.6203 C.3     1  UNL1        0.0390
     23 C         -18.2689   -6.6519  -24.9574 C.3     1  UNL1       -0.0262
     24 C         -16.9230   -7.3764  -24.9032 C.3     1  UNL1        0.0123
     25 N         -15.9567   -6.3141  -25.0278 N.am    1  UNL1       -0.3151
     26 C         -16.4861   -5.1716  -25.4469 C.2     1  UNL1        0.2162
     27 O         -15.8550   -4.1529  -25.6959 O.2     1  UNL1       -0.2755
     28 C         -21.0741   -3.6295  -23.9846 C.2     1  UNL1        0.2079
     29 O         -20.5290   -2.9778  -23.0978 O.2     1  UNL1       -0.2879
     30 C         -22.5444   -3.8225  -23.9449 C.ar    1  UNL1        0.1465
     31 N         -23.2194   -4.6567  -24.7390 N.ar    1  UNL1       -0.2360
     32 C         -24.5441   -4.7186  -24.3543 C.ar    1  UNL1        0.0790
     33 C         -25.5367   -5.5550  -24.9089 C.ar    1  UNL1       -0.0352
     34 C         -26.8460   -5.5526  -24.4008 C.ar    1  UNL1       -0.0597
     35 C         -27.1715   -4.7198  -23.3190 C.ar    1  UNL1       -0.0606
     36 C         -26.2063   -3.8664  -22.7540 C.ar    1  UNL1       -0.0459
     37 C         -24.9038   -3.8711  -23.2685 C.ar    1  UNL1        0.0396
     38 S         -23.4983   -2.9694  -22.7248 S.2     1  UNL1       -0.0643
     39 H         -21.5215   -2.8180  -31.2102 H       1  UNL1        0.0232
     40 H         -22.8698   -1.9362  -31.8820 H       1  UNL1        0.0232
     41 H         -22.2251   -1.4629  -30.3128 H       1  UNL1        0.0232
     42 H         -23.4896   -4.1860  -30.8975 H       1  UNL1        0.0296
     43 H         -25.4936   -3.3116  -29.6593 H       1  UNL1        0.0232
     44 H         -24.7743   -1.7143  -29.6799 H       1  UNL1        0.0232
     45 H         -25.1980   -2.4869  -31.1993 H       1  UNL1        0.0232
     46 H         -23.6649   -4.4944  -28.4890 H       1  UNL1        0.0290
     47 H         -23.0621   -2.8940  -28.1778 H       1  UNL1        0.0290
     48 H         -20.8175   -3.4796  -28.9732 H       1  UNL1        0.0596
     49 H         -22.0831   -5.9324  -30.0069 H       1  UNL1        0.1528
     50 H         -18.1652   -7.3797  -31.0410 H       1  UNL1        0.0749
     51 H         -19.2310   -8.7218  -31.3366 H       1  UNL1        0.0749
     52 H         -16.6947   -9.3199  -30.1718 H       1  UNL1        0.0621
     53 H         -16.0107  -10.5769  -28.1457 H       1  UNL1        0.0618
     54 H         -17.4995  -10.6458  -26.1530 H       1  UNL1        0.0618
     55 H         -19.6347   -9.3707  -26.1601 H       1  UNL1        0.0618
     56 H         -20.2925   -8.0638  -28.1479 H       1  UNL1        0.0621
     57 H         -20.5399   -3.0012  -26.7366 H       1  UNL1        0.1495
     58 H         -20.5057   -5.4005  -24.9275 H       1  UNL1        0.0582
     59 H         -18.4595   -4.0718  -23.9355 H       1  UNL1        0.0295
     60 H         -18.4860   -3.1870  -25.4345 H       1  UNL1        0.0295
     61 H         -18.1934   -5.3515  -26.6908 H       1  UNL1        0.0395
     62 H         -19.0329   -7.2126  -25.4896 H       1  UNL1        0.0288
     63 H         -18.6359   -6.5071  -23.9427 H       1  UNL1        0.0288
     64 H         -16.7850   -8.0366  -25.7552 H       1  UNL1        0.0462
     65 H         -16.7919   -7.9518  -23.9877 H       1  UNL1        0.0462
     66 H         -14.9640   -6.4649  -24.8986 H       1  UNL1        0.1487
     67 H         -25.2799   -6.2096  -25.7293 H       1  UNL1        0.0639
     68 H         -27.5971   -6.1993  -24.8315 H       1  UNL1        0.0618
     69 H         -28.1686   -4.7565  -22.9226 H       1  UNL1        0.0618
     70 H         -26.4526   -3.2332  -21.9157 H       1  UNL1        0.0629
@<TRIPOS>BOND
     1     1     2    1
     2     1    39    1
     3     1    40    1
     4     1    41    1
     5     2     3    1
     6     2     4    1
     7     2    42    1
     8     3    43    1
     9     3    44    1
    10     3    45    1
    11     4     5    1
    12     4    46    1
    13     4    47    1
    14     5     6    1
    15     5    17    1
    16     5    48    1
    17     6     7   am
    18     6    49    1
    19     7     8    2
    20     7     9    1
    21     9    10    1
    22    10    11    1
    23    10    50    1
    24    10    51    1
    25    11    16   ar
    26    11    12   ar
    27    12    13   ar
    28    12    52    1
    29    13    14   ar
    30    13    53    1
    31    14    15   ar
    32    14    54    1
    33    15    16   ar
    34    15    55    1
    35    16    56    1
    36    17    18    2
    37    17    19   am
    38    19    20    1
    39    19    57    1
    40    20    21    1
    41    20    28    1
    42    20    58    1
    43    21    22    1
    44    21    59    1
    45    21    60    1
    46    22    26    1
    47    22    23    1
    48    22    61    1
    49    23    24    1
    50    23    62    1
    51    23    63    1
    52    24    25    1
    53    24    64    1
    54    24    65    1
    55    25    26   am
    56    25    66    1
    57    26    27    2
    58    28    29    2
    59    28    30    1
    60    30    38   ar
    61    30    31   ar
    62    31    32   ar
    63    32    37   ar
    64    32    33   ar
    65    33    34   ar
    66    33    67    1
    67    34    35   ar
    68    34    68    1
    69    35    36   ar
    70    35    69    1
    71    36    37   ar
    72    36    70    1
    73    37    38   ar
