@<TRIPOS>MOLECULE
*****
 94 97 0 0 0
SMALL
GASTEIGER
****
Schrodinger Suite 2019-4.
@<TRIPOS>ATOM
      1 C         -24.5019   -9.3138  -27.2879 C.3     1  UNL1       -0.0626
      2 C         -23.7129   -7.9968  -27.3265 C.3     1  UNL1       -0.0446
      3 C         -24.6472   -6.8291  -26.9613 C.3     1  UNL1       -0.0626
      4 C         -23.0417   -7.7960  -28.7065 C.3     1  UNL1       -0.0236
      5 C         -21.6242   -7.1484  -28.6949 C.3     1  UNL1        0.0996
      6 N         -20.9526   -7.0479  -29.9847 N.am    1  UNL1       -0.3025
      7 C         -21.4824   -6.7313  -31.1687 C.2     1  UNL1        0.2342
      8 O         -22.6900   -6.7048  -31.3838 O.2     1  UNL1       -0.2738
      9 C         -20.4755   -6.4457  -32.2935 C.3     1  UNL1        0.1018
     10 N         -20.5733   -5.0532  -32.7809 N.am    1  UNL1       -0.3010
     11 C         -21.6423   -4.4561  -33.3378 C.2     1  UNL1        0.2513
     12 O         -22.7193   -5.0173  -33.4690 O.2     1  UNL1       -0.2721
     13 C         -21.5562   -3.0020  -33.8054 C.3     1  UNL1        0.1652
     14 O         -21.1654   -2.1007  -32.7912 O.3     1  UNL1       -0.4827
     15 C         -22.0163   -1.8107  -31.7496 C.ar    1  UNL1        0.1230
     16 C         -21.6786   -0.6873  -30.9897 C.ar    1  UNL1       -0.0198
     17 C         -22.3355   -0.4368  -29.7794 C.ar    1  UNL1       -0.0566
     18 C         -23.2774   -1.3545  -29.2906 C.ar    1  UNL1       -0.0404
     19 C         -23.7324   -2.4155  -30.0879 C.ar    1  UNL1        0.0327
     20 C         -23.1353   -2.5831  -31.3561 C.ar    1  UNL1        0.0011
     21 N         -24.7203   -3.3118  -29.6256 N.pl3   1  UNL1       -0.3359
     22 C         -24.5703   -4.6829  -30.0755 C.3     1  UNL1        0.0004
     23 C         -25.2646   -3.1539  -28.2846 C.3     1  UNL1        0.0004
     24 C         -20.5284   -7.5044  -33.4397 C.3     1  UNL1       -0.0197
     25 C         -20.8676   -8.9474  -32.9891 C.3     1  UNL1       -0.0605
     26 C         -19.1756   -7.5713  -34.1602 C.3     1  UNL1       -0.0605
     27 C         -21.4480   -5.8412  -27.9320 C.2     1  UNL1        0.2339
     28 O         -21.5140   -4.7500  -28.5018 O.2     1  UNL1       -0.2738
     29 N         -21.1842   -5.9969  -26.6301 N.am    1  UNL1       -0.3037
     30 C         -21.0166   -4.9570  -25.6344 C.3     1  UNL1        0.0888
     31 C         -22.2435   -4.0460  -25.6196 C.3     1  UNL1       -0.0160
     32 C         -22.3098   -3.1050  -24.4320 C.3     1  UNL1        0.0390
     33 C         -23.3823   -2.0683  -24.6814 C.3     1  UNL1       -0.0262
     34 C         -24.0834   -1.8538  -23.3548 C.3     1  UNL1        0.0123
     35 N         -23.6385   -2.9409  -22.5112 N.am    1  UNL1       -0.3151
     36 C         -22.7183   -3.6991  -23.0985 C.2     1  UNL1        0.2162
     37 O         -22.2303   -4.7220  -22.6337 O.2     1  UNL1       -0.2755
     38 C         -19.6631   -4.2420  -25.8176 C.2     1  UNL1        0.2079
     39 O         -19.5526   -3.1325  -26.3284 O.2     1  UNL1       -0.2879
     40 C         -18.4353   -4.9631  -25.4150 C.ar    1  UNL1        0.1465
     41 N         -17.1959   -4.4801  -25.5354 N.ar    1  UNL1       -0.2360
     42 C         -16.2876   -5.4642  -25.1775 C.ar    1  UNL1        0.0790
     43 C         -14.8898   -5.3554  -25.2076 C.ar    1  UNL1       -0.0352
     44 C         -14.0702   -6.4382  -24.8393 C.ar    1  UNL1       -0.0597
     45 C         -14.6384   -7.6636  -24.4489 C.ar    1  UNL1       -0.0606
     46 C         -16.0335   -7.7991  -24.4044 C.ar    1  UNL1       -0.0459
     47 C         -16.8409   -6.7067  -24.7598 C.ar    1  UNL1        0.0396
     48 S         -18.5795   -6.6105  -24.7842 S.2     1  UNL1       -0.0643
     49 H         -23.8576  -10.1694  -27.4885 H       1  UNL1        0.0232
     50 H         -24.9578   -9.4717  -26.3105 H       1  UNL1        0.0232
     51 H         -25.2986   -9.3191  -28.0330 H       1  UNL1        0.0232
     52 H         -22.9378   -8.0714  -26.5637 H       1  UNL1        0.0296
     53 H         -24.1792   -5.8630  -27.1335 H       1  UNL1        0.0232
     54 H         -25.5540   -6.8484  -27.5669 H       1  UNL1        0.0232
     55 H         -24.9478   -6.8738  -25.9145 H       1  UNL1        0.0232
     56 H         -23.7439   -7.2441  -29.3236 H       1  UNL1        0.0290
     57 H         -22.9361   -8.7659  -29.1946 H       1  UNL1        0.0290
     58 H         -20.9938   -7.8621  -28.1686 H       1  UNL1        0.0594
     59 H         -19.9454   -7.1039  -29.9467 H       1  UNL1        0.1495
     60 H         -19.4832   -6.5135  -31.8445 H       1  UNL1        0.0597
     61 H         -19.7401   -4.4925  -32.6875 H       1  UNL1        0.1496
     62 H         -22.5168   -2.6731  -34.1748 H       1  UNL1        0.0795
     63 H         -20.8499   -2.9297  -34.6269 H       1  UNL1        0.0795
     64 H         -20.8701   -0.0584  -31.3255 H       1  UNL1        0.0654
     65 H         -22.0420    0.4038  -29.1738 H       1  UNL1        0.0619
     66 H         -23.6557   -1.2316  -28.2939 H       1  UNL1        0.0636
     67 H         -23.5129   -3.3622  -31.9848 H       1  UNL1        0.0673
     68 H         -25.2128   -5.3645  -29.5199 H       1  UNL1        0.0428
     69 H         -24.7976   -4.7964  -31.1335 H       1  UNL1        0.0428
     70 H         -23.5466   -4.9958  -29.9082 H       1  UNL1        0.0428
     71 H         -25.7839   -2.2052  -28.1892 H       1  UNL1        0.0428
     72 H         -25.9887   -3.9360  -28.0573 H       1  UNL1        0.0428
     73 H         -24.4752   -3.2096  -27.5369 H       1  UNL1        0.0428
     74 H         -21.2847   -7.2043  -34.1645 H       1  UNL1        0.0318
     75 H         -20.8444   -9.6358  -33.8350 H       1  UNL1        0.0233
     76 H         -20.1479   -9.3110  -32.2545 H       1  UNL1        0.0233
     77 H         -21.8582   -9.0382  -32.5457 H       1  UNL1        0.0233
     78 H         -18.4216   -8.0486  -33.5327 H       1  UNL1        0.0233
     79 H         -19.2642   -8.1631  -35.0704 H       1  UNL1        0.0233
     80 H         -18.7803   -6.5892  -34.4122 H       1  UNL1        0.0233
     81 H         -21.1417   -6.9456  -26.2866 H       1  UNL1        0.1495
     82 H         -21.0098   -5.4791  -24.6811 H       1  UNL1        0.0582
     83 H         -23.1468   -4.6542  -25.6157 H       1  UNL1        0.0295
     84 H         -22.2793   -3.4494  -26.5318 H       1  UNL1        0.0295
     85 H         -21.3431   -2.6437  -24.2648 H       1  UNL1        0.0395
     86 H         -24.0986   -2.3859  -25.4380 H       1  UNL1        0.0288
     87 H         -22.8985   -1.1728  -25.0373 H       1  UNL1        0.0288
     88 H         -25.1685   -1.8582  -23.4569 H       1  UNL1        0.0462
     89 H         -23.7523   -0.9032  -22.9572 H       1  UNL1        0.0462
     90 H         -24.0599   -3.1436  -21.6158 H       1  UNL1        0.1487
     91 H         -14.4598   -4.4244  -25.5296 H       1  UNL1        0.0639
     92 H         -12.9962   -6.3355  -24.8505 H       1  UNL1        0.0618
     93 H         -14.0011   -8.4918  -24.1762 H       1  UNL1        0.0618
     94 H         -16.4809   -8.7316  -24.0949 H       1  UNL1        0.0629
@<TRIPOS>BOND
     1     1     2    1
     2     1    49    1
     3     1    50    1
     4     1    51    1
     5     2     3    1
     6     2     4    1
     7     2    52    1
     8     3    53    1
     9     3    54    1
    10     3    55    1
    11     4     5    1
    12     4    56    1
    13     4    57    1
    14     5     6    1
    15     5    27    1
    16     5    58    1
    17     6     7   am
    18     6    59    1
    19     7     8    2
    20     7     9    1
    21     9    10    1
    22     9    24    1
    23     9    60    1
    24    10    11   am
    25    10    61    1
    26    11    12    2
    27    11    13    1
    28    13    14    1
    29    13    62    1
    30    13    63    1
    31    14    15    1
    32    15    20   ar
    33    15    16   ar
    34    16    17   ar
    35    16    64    1
    36    17    18   ar
    37    17    65    1
    38    18    19   ar
    39    18    66    1
    40    19    20   ar
    41    19    21    1
    42    20    67    1
    43    21    22    1
    44    21    23    1
    45    22    68    1
    46    22    69    1
    47    22    70    1
    48    23    71    1
    49    23    72    1
    50    23    73    1
    51    24    25    1
    52    24    26    1
    53    24    74    1
    54    25    75    1
    55    25    76    1
    56    25    77    1
    57    26    78    1
    58    26    79    1
    59    26    80    1
    60    27    28    2
    61    27    29   am
    62    29    30    1
    63    29    81    1
    64    30    31    1
    65    30    38    1
    66    30    82    1
    67    31    32    1
    68    31    83    1
    69    31    84    1
    70    32    36    1
    71    32    33    1
    72    32    85    1
    73    33    34    1
    74    33    86    1
    75    33    87    1
    76    34    35    1
    77    34    88    1
    78    34    89    1
    79    35    36   am
    80    35    90    1
    81    36    37    2
    82    38    39    2
    83    38    40    1
    84    40    48   ar
    85    40    41   ar
    86    41    42   ar
    87    42    47   ar
    88    42    43   ar
    89    43    44   ar
    90    43    91    1
    91    44    45   ar
    92    44    92    1
    93    45    46   ar
    94    45    93    1
    95    46    47   ar
    96    46    94    1
    97    47    48   ar
