
                    3D
 Schrodinger Suite 2019-4.
 94 97  0  0  1  0            999 V2000
  -24.5019   -9.3138  -27.2879 C   0  0  0  0  0  0
  -23.7129   -7.9968  -27.3265 C   0  0  0  0  0  0
  -24.6472   -6.8291  -26.9613 C   0  0  0  0  0  0
  -23.0417   -7.7960  -28.7065 C   0  0  0  0  0  0
  -21.6242   -7.1484  -28.6949 C   0  0  1  0  0  0
  -20.9526   -7.0479  -29.9847 N   0  0  0  0  0  0
  -21.4824   -6.7313  -31.1687 C   0  0  0  0  0  0
  -22.6900   -6.7048  -31.3838 O   0  0  0  0  0  0
  -20.4755   -6.4457  -32.2935 C   0  0  2  0  0  0
  -20.5733   -5.0532  -32.7809 N   0  0  0  0  0  0
  -21.6423   -4.4561  -33.3378 C   0  0  0  0  0  0
  -22.7193   -5.0173  -33.4690 O   0  0  0  0  0  0
  -21.5562   -3.0020  -33.8054 C   0  0  0  0  0  0
  -21.1654   -2.1007  -32.7912 O   0  0  0  0  0  0
  -22.0163   -1.8107  -31.7496 C   0  0  0  0  0  0
  -21.6786   -0.6873  -30.9897 C   0  0  0  0  0  0
  -22.3355   -0.4368  -29.7794 C   0  0  0  0  0  0
  -23.2774   -1.3545  -29.2906 C   0  0  0  0  0  0
  -23.7324   -2.4155  -30.0879 C   0  0  0  0  0  0
  -23.1353   -2.5831  -31.3561 C   0  0  0  0  0  0
  -24.7203   -3.3118  -29.6256 N   0  0  0  0  0  0
  -24.5703   -4.6829  -30.0755 C   0  0  0  0  0  0
  -25.2646   -3.1539  -28.2846 C   0  0  0  0  0  0
  -20.5284   -7.5044  -33.4397 C   0  0  0  0  0  0
  -20.8676   -8.9474  -32.9891 C   0  0  0  0  0  0
  -19.1756   -7.5713  -34.1602 C   0  0  0  0  0  0
  -21.4480   -5.8412  -27.9320 C   0  0  0  0  0  0
  -21.5140   -4.7500  -28.5018 O   0  0  0  0  0  0
  -21.1842   -5.9969  -26.6301 N   0  0  0  0  0  0
  -21.0166   -4.9570  -25.6344 C   0  0  2  0  0  0
  -22.2435   -4.0460  -25.6196 C   0  0  0  0  0  0
  -22.3098   -3.1050  -24.4320 C   0  0  1  0  0  0
  -23.3823   -2.0683  -24.6814 C   0  0  0  0  0  0
  -24.0834   -1.8538  -23.3548 C   0  0  0  0  0  0
  -23.6385   -2.9409  -22.5112 N   0  0  0  0  0  0
  -22.7183   -3.6991  -23.0985 C   0  0  0  0  0  0
  -22.2303   -4.7220  -22.6337 O   0  0  0  0  0  0
  -19.6631   -4.2420  -25.8176 C   0  0  0  0  0  0
  -19.5526   -3.1325  -26.3284 O   0  0  0  0  0  0
  -18.4353   -4.9631  -25.4150 C   0  0  0  0  0  0
  -17.1959   -4.4801  -25.5354 N   0  0  0  0  0  0
  -16.2876   -5.4642  -25.1775 C   0  0  0  0  0  0
  -14.8898   -5.3554  -25.2076 C   0  0  0  0  0  0
  -14.0702   -6.4382  -24.8393 C   0  0  0  0  0  0
  -14.6384   -7.6636  -24.4489 C   0  0  0  0  0  0
  -16.0335   -7.7991  -24.4044 C   0  0  0  0  0  0
  -16.8409   -6.7067  -24.7598 C   0  0  0  0  0  0
  -18.5795   -6.6105  -24.7842 S   0  0  0  0  0  0
  -23.8576  -10.1694  -27.4885 H   0  0  0  0  0  0
  -24.9578   -9.4717  -26.3105 H   0  0  0  0  0  0
  -25.2986   -9.3191  -28.0330 H   0  0  0  0  0  0
  -22.9378   -8.0714  -26.5637 H   0  0  0  0  0  0
  -24.1792   -5.8630  -27.1335 H   0  0  0  0  0  0
  -25.5540   -6.8484  -27.5669 H   0  0  0  0  0  0
  -24.9478   -6.8738  -25.9145 H   0  0  0  0  0  0
  -23.7439   -7.2441  -29.3236 H   0  0  0  0  0  0
  -22.9361   -8.7659  -29.1946 H   0  0  0  0  0  0
  -20.9938   -7.8621  -28.1686 H   0  0  0  0  0  0
  -19.9454   -7.1039  -29.9467 H   0  0  0  0  0  0
  -19.4832   -6.5135  -31.8445 H   0  0  0  0  0  0
  -19.7401   -4.4925  -32.6875 H   0  0  0  0  0  0
  -22.5168   -2.6731  -34.1748 H   0  0  0  0  0  0
  -20.8499   -2.9297  -34.6269 H   0  0  0  0  0  0
  -20.8701   -0.0584  -31.3255 H   0  0  0  0  0  0
  -22.0420    0.4038  -29.1738 H   0  0  0  0  0  0
  -23.6557   -1.2316  -28.2939 H   0  0  0  0  0  0
  -23.5129   -3.3622  -31.9848 H   0  0  0  0  0  0
  -25.2128   -5.3645  -29.5199 H   0  0  0  0  0  0
  -24.7976   -4.7964  -31.1335 H   0  0  0  0  0  0
  -23.5466   -4.9958  -29.9082 H   0  0  0  0  0  0
  -25.7839   -2.2052  -28.1892 H   0  0  0  0  0  0
  -25.9887   -3.9360  -28.0573 H   0  0  0  0  0  0
  -24.4752   -3.2096  -27.5369 H   0  0  0  0  0  0
  -21.2847   -7.2043  -34.1645 H   0  0  0  0  0  0
  -20.8444   -9.6358  -33.8350 H   0  0  0  0  0  0
  -20.1479   -9.3110  -32.2545 H   0  0  0  0  0  0
  -21.8582   -9.0382  -32.5457 H   0  0  0  0  0  0
  -18.4216   -8.0486  -33.5327 H   0  0  0  0  0  0
  -19.2642   -8.1631  -35.0704 H   0  0  0  0  0  0
  -18.7803   -6.5892  -34.4122 H   0  0  0  0  0  0
  -21.1417   -6.9456  -26.2866 H   0  0  0  0  0  0
  -21.0098   -5.4791  -24.6811 H   0  0  0  0  0  0
  -23.1468   -4.6542  -25.6157 H   0  0  0  0  0  0
  -22.2793   -3.4494  -26.5318 H   0  0  0  0  0  0
  -21.3431   -2.6437  -24.2648 H   0  0  0  0  0  0
  -24.0986   -2.3859  -25.4380 H   0  0  0  0  0  0
  -22.8985   -1.1728  -25.0373 H   0  0  0  0  0  0
  -25.1685   -1.8582  -23.4569 H   0  0  0  0  0  0
  -23.7523   -0.9032  -22.9572 H   0  0  0  0  0  0
  -24.0599   -3.1436  -21.6158 H   0  0  0  0  0  0
  -14.4598   -4.4244  -25.5296 H   0  0  0  0  0  0
  -12.9962   -6.3355  -24.8505 H   0  0  0  0  0  0
  -14.0011   -8.4918  -24.1762 H   0  0  0  0  0  0
  -16.4809   -8.7316  -24.0949 H   0  0  0  0  0  0
  1  2  1  0  0  0
  1 49  1  0  0  0
  1 50  1  0  0  0
  1 51  1  0  0  0
  2  3  1  0  0  0
  2  4  1  0  0  0
  2 52  1  0  0  0
  3 53  1  0  0  0
  3 54  1  0  0  0
  3 55  1  0  0  0
  4  5  1  0  0  0
  4 56  1  0  0  0
  4 57  1  0  0  0
  5  6  1  0  0  0
  5 27  1  0  0  0
  5 58  1  0  0  0
  6  7  1  0  0  0
  6 59  1  0  0  0
  7  8  2  0  0  0
  7  9  1  0  0  0
  9 10  1  0  0  0
  9 24  1  0  0  0
  9 60  1  0  0  0
 10 11  1  0  0  0
 10 61  1  0  0  0
 11 12  2  0  0  0
 11 13  1  0  0  0
 13 14  1  0  0  0
 13 62  1  0  0  0
 13 63  1  0  0  0
 14 15  1  0  0  0
 15 20  1  0  0  0
 15 16  2  0  0  0
 16 17  1  0  0  0
 16 64  1  0  0  0
 17 18  2  0  0  0
 17 65  1  0  0  0
 18 19  1  0  0  0
 18 66  1  0  0  0
 19 20  2  0  0  0
 19 21  1  0  0  0
 20 67  1  0  0  0
 21 22  1  0  0  0
 21 23  1  0  0  0
 22 68  1  0  0  0
 22 69  1  0  0  0
 22 70  1  0  0  0
 23 71  1  0  0  0
 23 72  1  0  0  0
 23 73  1  0  0  0
 24 25  1  0  0  0
 24 26  1  0  0  0
 24 74  1  0  0  0
 25 75  1  0  0  0
 25 76  1  0  0  0
 25 77  1  0  0  0
 26 78  1  0  0  0
 26 79  1  0  0  0
 26 80  1  0  0  0
 27 28  2  0  0  0
 27 29  1  0  0  0
 29 30  1  0  0  0
 29 81  1  0  0  0
 30 31  1  0  0  0
 30 38  1  0  0  0
 30 82  1  0  0  0
 31 32  1  0  0  0
 31 83  1  0  0  0
 31 84  1  0  0  0
 32 36  1  0  0  0
 32 33  1  0  0  0
 32 85  1  0  0  0
 33 34  1  0  0  0
 33 86  1  0  0  0
 33 87  1  0  0  0
 34 35  1  0  0  0
 34 88  1  0  0  0
 34 89  1  0  0  0
 35 36  1  0  0  0
 35 90  1  0  0  0
 36 37  2  0  0  0
 38 39  2  0  0  0
 38 40  1  0  0  0
 40 48  1  0  0  0
 40 41  2  0  0  0
 41 42  1  0  0  0
 42 47  1  0  0  0
 42 43  2  0  0  0
 43 44  1  0  0  0
 43 91  1  0  0  0
 44 45  2  0  0  0
 44 92  1  0  0  0
 45 46  1  0  0  0
 45 93  1  0  0  0
 46 47  2  0  0  0
 46 94  1  0  0  0
 47 48  1  0  0  0
M  END
$$$$
