@<TRIPOS>MOLECULE
/home/lixiaoshuang.lxs/med/data/m_pro/PDB_BA/2op9/2op9_ligand.pdb
 29 30 0 0 0
SMALL
GASTEIGER

@<TRIPOS>ATOM
      1  O4        -6.5520   28.5150   71.1060 O.2   601  WR1601     -0.2245
      2  C15       -6.5250   27.8900   72.1570 C.2   601  WR1601      0.4219
      3  O5        -6.2310   26.4680   72.1340 O.3   601  WR1601     -0.4285
      4  C16       -5.5160   25.8180   71.0780 C.3   601  WR1601      0.2368
      5  C17       -4.1610   26.4210   70.7410 C.ar  601  WR1601      0.0213
      6  C18       -3.4620   25.9000   69.6440 C.ar  601  WR1601     -0.0007
      7  C19       -2.2190   26.4200   69.2890 C.ar  601  WR1601     -0.0002
      8  C20       -1.6640   27.4620   70.0320 C.ar  601  WR1601     -0.0000
      9  C21       -2.3460   27.9720   71.1330 C.ar  601  WR1601     -0.0002
     10  C22       -3.5920   27.4590   71.4880 C.ar  601  WR1601     -0.0007
     11  N2        -6.6950   28.3820   73.3840 N.am  601  WR1601     -0.1607
     12  C7        -6.9660   29.7610   73.7370 C.3   601  WR1601      0.1804
     13  C8        -8.1050   29.7830   74.7610 C.3   601  WR1601      0.0575
     14  C9        -9.3070   29.0590   74.1810 C.ar  601  WR1601     -0.0200
     15  C10       -9.4620   27.6780   74.3360 C.ar  601  WR1601     -0.0042
     16  C11      -10.5700   27.0350   73.7840 C.ar  601  WR1601     -0.0003
     17  C12      -11.5180   27.7770   73.0800 C.ar  601  WR1601     -0.0000
     18  C13      -11.3540   29.1540   72.9310 C.ar  601  WR1601     -0.0003
     19  C14      -10.2570   29.7940   73.4820 C.ar  601  WR1601     -0.0042
     20  C6        -5.7340   30.4410   74.3020 C.2   601  WR1601      0.2620
     21  O3        -4.6870   29.8150   74.4860 O.2   601  WR1601     -0.2715
     22  N1        -5.8250   31.7550   74.5470 N.am  601  WR1601     -0.1982
     23  C4        -4.6800   32.5560   74.9540 C.3   601  WR1601      0.1525
     24  C5        -5.1140   33.7280   75.8440 C.3   601  WR1601      0.0314
     25  C3        -3.8920   33.0250   73.7460 C.2   601  WR1601      0.1729
     26  O2        -3.2570   34.0880   73.8110 O.2   601  WR1601     -0.2942
     27  C2        -3.8880   32.1160   72.5040 C.3   601  WR1601      0.1018
     28  C1        -3.0880   32.6100   71.2980 C.3   601  WR1601      0.1899
     29  O1        -2.5760   31.4720   70.6260 O.3   601  WR1601     -0.2199
@<TRIPOS>BOND
     1     7     6   ar
     2     7     8   ar
     3     6     5   ar
     4     8     9   ar
     5    29    28    1
     6     5     4    1
     7     5    10   ar
     8     4     3    1
     9     1     2    2
    10     9    10   ar
    11    28    27    1
    12     3     2    1
    13     2    11   am
    14    27    25    1
    15    18    17   ar
    16    18    19   ar
    17    17    16   ar
    18    11    12    1
    19    19    14   ar
    20    12    20    1
    21    12    13    1
    22    25    26    2
    23    25    23    1
    24    16    15   ar
    25    14    15   ar
    26    14    13    1
    27    20    21    2
    28    20    22   am
    29    22    23    1
    30    23    24    1
