@<TRIPOS>MOLECULE
*****
 60 61 0 0 0
SMALL
GASTEIGER
****
Schrodinger Suite 2019-4.
@<TRIPOS>ATOM
      1 C         -20.1345  -11.0182  -30.3644 C.3     1  UNL1       -0.0626
      2 C         -19.9843   -9.7150  -31.1834 C.3     1  UNL1       -0.0446
      3 C         -18.9718   -9.8773  -32.3417 C.3     1  UNL1       -0.0626
      4 C         -19.6671   -8.5041  -30.2645 C.3     1  UNL1       -0.0235
      5 C         -20.0844   -7.1140  -30.8277 C.3     1  UNL1        0.1027
      6 N         -19.1960   -6.7528  -31.9422 N.am    1  UNL1       -0.2698
      7 C         -19.6733   -6.5940  -33.2288 C.2     1  UNL1        0.4012
      8 O         -20.8529   -6.6429  -33.5871 O.2     1  UNL1       -0.2265
      9 O         -18.6264   -6.3900  -34.0567 O.3     1  UNL1       -0.4456
     10 C         -18.7775   -6.4419  -35.4748 C.3     1  UNL1        0.1191
     11 C         -19.0277   -7.8713  -35.9421 C.ar    1  UNL1       -0.0103
     12 C         -17.9990   -8.8143  -35.8831 C.ar    1  UNL1       -0.0554
     13 C         -18.2379  -10.1260  -36.2856 C.ar    1  UNL1       -0.0614
     14 C         -19.5051  -10.4882  -36.7396 C.ar    1  UNL1       -0.0617
     15 C         -20.5378   -9.5539  -36.7872 C.ar    1  UNL1       -0.0614
     16 C         -20.2980   -8.2432  -36.3870 C.ar    1  UNL1       -0.0554
     17 C         -20.1041   -6.0044  -29.7459 C.2     1  UNL1        0.2340
     18 O         -19.3350   -5.0437  -29.8222 O.2     1  UNL1       -0.2738
     19 N         -21.0115   -6.1728  -28.7576 N.am    1  UNL1       -0.3035
     20 C         -21.4972   -5.2375  -27.7128 C.3     1  UNL1        0.0944
     21 C         -22.8103   -4.5238  -28.1740 C.3     1  UNL1       -0.0020
     22 C         -22.8743   -3.9405  -29.5821 C.ar    1  UNL1       -0.0452
     23 C         -23.2884   -4.7447  -30.6677 C.ar    1  UNL1       -0.0585
     24 C         -23.2712   -4.2353  -31.9597 C.ar    1  UNL1       -0.0615
     25 C         -22.8323   -2.9382  -32.1933 C.ar    1  UNL1       -0.0617
     26 C         -22.3954   -2.1453  -31.1412 C.ar    1  UNL1       -0.0615
     27 C         -22.3958   -2.6393  -29.8436 C.ar    1  UNL1       -0.0585
     28 C         -20.4102   -4.2973  -27.1728 C.2     1  UNL1        0.2557
     29 O         -20.5434   -3.0717  -27.1870 O.2     1  UNL1       -0.2859
     30 C         -19.2634   -4.9205  -26.3489 C.3     1  UNL1        0.4525
     31 F         -18.1914   -4.1272  -26.3867 F       1  UNL1       -0.1633
     32 F         -19.6625   -5.0414  -25.0821 F       1  UNL1       -0.1633
     33 F         -18.9298   -6.1267  -26.8098 F       1  UNL1       -0.1633
     34 H         -21.1793  -11.3282  -30.3247 H       1  UNL1        0.0232
     35 H         -19.5746  -11.8555  -30.7794 H       1  UNL1        0.0232
     36 H         -19.7965  -10.9022  -29.3343 H       1  UNL1        0.0232
     37 H         -20.9595   -9.5302  -31.6372 H       1  UNL1        0.0296
     38 H         -19.4471   -9.6631  -33.2995 H       1  UNL1        0.0232
     39 H         -18.1214   -9.2027  -32.2434 H       1  UNL1        0.0232
     40 H         -18.5574  -10.8821  -32.4157 H       1  UNL1        0.0232
     41 H         -18.6151   -8.5115  -29.9723 H       1  UNL1        0.0290
     42 H         -20.2178   -8.6618  -29.3376 H       1  UNL1        0.0290
     43 H         -21.1244   -7.1804  -31.1584 H       1  UNL1        0.0596
     44 H         -18.2120   -6.5868  -31.7581 H       1  UNL1        0.1528
     45 H         -17.8648   -6.0723  -35.9435 H       1  UNL1        0.0749
     46 H         -19.5805   -5.7824  -35.8085 H       1  UNL1        0.0749
     47 H         -17.0251   -8.5347  -35.5088 H       1  UNL1        0.0621
     48 H         -17.4489  -10.8626  -36.2363 H       1  UNL1        0.0618
     49 H         -19.6920  -11.5065  -37.0482 H       1  UNL1        0.0618
     50 H         -21.5208   -9.8420  -37.1314 H       1  UNL1        0.0618
     51 H         -21.1019   -7.5208  -36.4148 H       1  UNL1        0.0621
     52 H         -21.5954   -6.9957  -28.8372 H       1  UNL1        0.1495
     53 H         -21.7955   -5.8685  -26.8741 H       1  UNL1        0.0584
     54 H         -23.0759   -3.7320  -27.4703 H       1  UNL1        0.0335
     55 H         -23.6339   -5.2342  -28.0877 H       1  UNL1        0.0335
     56 H         -23.6209   -5.7586  -30.4976 H       1  UNL1        0.0620
     57 H         -23.5909   -4.8527  -32.7858 H       1  UNL1        0.0618
     58 H         -22.8105   -2.5492  -33.2002 H       1  UNL1        0.0618
     59 H         -22.0304   -1.1456  -31.3306 H       1  UNL1        0.0618
     60 H         -22.0330   -2.0153  -29.0397 H       1  UNL1        0.0620
@<TRIPOS>BOND
     1     1     2    1
     2     1    34    1
     3     1    35    1
     4     1    36    1
     5     2     3    1
     6     2     4    1
     7     2    37    1
     8     3    38    1
     9     3    39    1
    10     3    40    1
    11     4     5    1
    12     4    41    1
    13     4    42    1
    14     5     6    1
    15     5    17    1
    16     5    43    1
    17     6     7   am
    18     6    44    1
    19     7     8    2
    20     7     9    1
    21     9    10    1
    22    10    11    1
    23    10    45    1
    24    10    46    1
    25    11    16   ar
    26    11    12   ar
    27    12    13   ar
    28    12    47    1
    29    13    14   ar
    30    13    48    1
    31    14    15   ar
    32    14    49    1
    33    15    16   ar
    34    15    50    1
    35    16    51    1
    36    17    18    2
    37    17    19   am
    38    19    20    1
    39    19    52    1
    40    20    21    1
    41    20    28    1
    42    20    53    1
    43    21    22    1
    44    21    54    1
    45    21    55    1
    46    22    27   ar
    47    22    23   ar
    48    23    24   ar
    49    23    56    1
    50    24    25   ar
    51    24    57    1
    52    25    26   ar
    53    25    58    1
    54    26    27   ar
    55    26    59    1
    56    27    60    1
    57    28    29    2
    58    28    30    1
    59    30    31    1
    60    30    32    1
    61    30    33    1
