
                    3D
 Schrodinger Suite 2019-4.
 60 61  0  0  1  0            999 V2000
  -20.1345  -11.0182  -30.3644 C   0  0  0  0  0  0
  -19.9843   -9.7150  -31.1834 C   0  0  0  0  0  0
  -18.9718   -9.8773  -32.3417 C   0  0  0  0  0  0
  -19.6671   -8.5041  -30.2645 C   0  0  0  0  0  0
  -20.0844   -7.1140  -30.8277 C   0  0  2  0  0  0
  -19.1960   -6.7528  -31.9422 N   0  0  0  0  0  0
  -19.6733   -6.5940  -33.2288 C   0  0  0  0  0  0
  -20.8529   -6.6429  -33.5871 O   0  0  0  0  0  0
  -18.6264   -6.3900  -34.0567 O   0  0  0  0  0  0
  -18.7775   -6.4419  -35.4748 C   0  0  0  0  0  0
  -19.0277   -7.8713  -35.9421 C   0  0  0  0  0  0
  -17.9990   -8.8143  -35.8831 C   0  0  0  0  0  0
  -18.2379  -10.1260  -36.2856 C   0  0  0  0  0  0
  -19.5051  -10.4882  -36.7396 C   0  0  0  0  0  0
  -20.5378   -9.5539  -36.7872 C   0  0  0  0  0  0
  -20.2980   -8.2432  -36.3870 C   0  0  0  0  0  0
  -20.1041   -6.0044  -29.7459 C   0  0  0  0  0  0
  -19.3350   -5.0437  -29.8222 O   0  0  0  0  0  0
  -21.0115   -6.1728  -28.7576 N   0  0  0  0  0  0
  -21.4972   -5.2375  -27.7128 C   0  0  2  0  0  0
  -22.8103   -4.5238  -28.1740 C   0  0  0  0  0  0
  -22.8743   -3.9405  -29.5821 C   0  0  0  0  0  0
  -23.2884   -4.7447  -30.6677 C   0  0  0  0  0  0
  -23.2712   -4.2353  -31.9597 C   0  0  0  0  0  0
  -22.8323   -2.9382  -32.1933 C   0  0  0  0  0  0
  -22.3954   -2.1453  -31.1412 C   0  0  0  0  0  0
  -22.3958   -2.6393  -29.8436 C   0  0  0  0  0  0
  -20.4102   -4.2973  -27.1728 C   0  0  0  0  0  0
  -20.5434   -3.0717  -27.1870 O   0  0  0  0  0  0
  -19.2634   -4.9205  -26.3489 C   0  0  0  0  0  0
  -18.1914   -4.1272  -26.3867 F   0  0  0  0  0  0
  -19.6625   -5.0414  -25.0821 F   0  0  0  0  0  0
  -18.9298   -6.1267  -26.8098 F   0  0  0  0  0  0
  -21.1793  -11.3282  -30.3247 H   0  0  0  0  0  0
  -19.5746  -11.8555  -30.7794 H   0  0  0  0  0  0
  -19.7965  -10.9022  -29.3343 H   0  0  0  0  0  0
  -20.9595   -9.5302  -31.6372 H   0  0  0  0  0  0
  -19.4471   -9.6631  -33.2995 H   0  0  0  0  0  0
  -18.1214   -9.2027  -32.2434 H   0  0  0  0  0  0
  -18.5574  -10.8821  -32.4157 H   0  0  0  0  0  0
  -18.6151   -8.5115  -29.9723 H   0  0  0  0  0  0
  -20.2178   -8.6618  -29.3376 H   0  0  0  0  0  0
  -21.1244   -7.1804  -31.1584 H   0  0  0  0  0  0
  -18.2120   -6.5868  -31.7581 H   0  0  0  0  0  0
  -17.8648   -6.0723  -35.9435 H   0  0  0  0  0  0
  -19.5805   -5.7824  -35.8085 H   0  0  0  0  0  0
  -17.0251   -8.5347  -35.5088 H   0  0  0  0  0  0
  -17.4489  -10.8626  -36.2363 H   0  0  0  0  0  0
  -19.6920  -11.5065  -37.0482 H   0  0  0  0  0  0
  -21.5208   -9.8420  -37.1314 H   0  0  0  0  0  0
  -21.1019   -7.5208  -36.4148 H   0  0  0  0  0  0
  -21.5954   -6.9957  -28.8372 H   0  0  0  0  0  0
  -21.7955   -5.8685  -26.8741 H   0  0  0  0  0  0
  -23.0759   -3.7320  -27.4703 H   0  0  0  0  0  0
  -23.6339   -5.2342  -28.0877 H   0  0  0  0  0  0
  -23.6209   -5.7586  -30.4976 H   0  0  0  0  0  0
  -23.5909   -4.8527  -32.7858 H   0  0  0  0  0  0
  -22.8105   -2.5492  -33.2002 H   0  0  0  0  0  0
  -22.0304   -1.1456  -31.3306 H   0  0  0  0  0  0
  -22.0330   -2.0153  -29.0397 H   0  0  0  0  0  0
  1  2  1  0  0  0
  1 34  1  0  0  0
  1 35  1  0  0  0
  1 36  1  0  0  0
  2  3  1  0  0  0
  2  4  1  0  0  0
  2 37  1  0  0  0
  3 38  1  0  0  0
  3 39  1  0  0  0
  3 40  1  0  0  0
  4  5  1  0  0  0
  4 41  1  0  0  0
  4 42  1  0  0  0
  5  6  1  0  0  0
  5 17  1  0  0  0
  5 43  1  0  0  0
  6  7  1  0  0  0
  6 44  1  0  0  0
  7  8  2  0  0  0
  7  9  1  0  0  0
  9 10  1  0  0  0
 10 11  1  0  0  0
 10 45  1  0  0  0
 10 46  1  0  0  0
 11 16  1  0  0  0
 11 12  2  0  0  0
 12 13  1  0  0  0
 12 47  1  0  0  0
 13 14  2  0  0  0
 13 48  1  0  0  0
 14 15  1  0  0  0
 14 49  1  0  0  0
 15 16  2  0  0  0
 15 50  1  0  0  0
 16 51  1  0  0  0
 17 18  2  0  0  0
 17 19  1  0  0  0
 19 20  1  0  0  0
 19 52  1  0  0  0
 20 21  1  0  0  0
 20 28  1  0  0  0
 20 53  1  0  0  0
 21 22  1  0  0  0
 21 54  1  0  0  0
 21 55  1  0  0  0
 22 27  1  0  0  0
 22 23  2  0  0  0
 23 24  1  0  0  0
 23 56  1  0  0  0
 24 25  2  0  0  0
 24 57  1  0  0  0
 25 26  1  0  0  0
 25 58  1  0  0  0
 26 27  2  0  0  0
 26 59  1  0  0  0
 27 60  1  0  0  0
 28 29  2  0  0  0
 28 30  1  0  0  0
 30 31  1  0  0  0
 30 32  1  0  0  0
 30 33  1  0  0  0
M  END
$$$$
