@<TRIPOS>MOLECULE
*****
 89 90 0 0 0
SMALL
GASTEIGER
****
Schrodinger Suite 2019-4.
@<TRIPOS>ATOM
      1 C         -25.0177   -1.6807  -31.2864 C.3     1  UNL1       -0.0626
      2 C         -23.8024   -2.0898  -30.4349 C.3     1  UNL1       -0.0446
      3 C         -22.9105   -0.8831  -30.0702 C.3     1  UNL1       -0.0626
      4 C         -23.0201   -3.2124  -31.1565 C.3     1  UNL1       -0.0236
      5 C         -21.8509   -3.8629  -30.3807 C.3     1  UNL1        0.0996
      6 N         -21.4051   -5.0251  -31.1420 N.am    1  UNL1       -0.3025
      7 C         -20.2437   -5.6800  -30.9993 C.2     1  UNL1        0.2343
      8 O         -19.3159   -5.2919  -30.2889 O.2     1  UNL1       -0.2738
      9 C         -20.1148   -6.9794  -31.8347 C.3     1  UNL1        0.1048
     10 N         -19.0053   -6.8646  -32.7931 N.am    1  UNL1       -0.2696
     11 C         -19.2151   -6.2515  -34.0168 C.2     1  UNL1        0.4012
     12 O         -20.2671   -5.7370  -34.3925 O.2     1  UNL1       -0.2265
     13 O         -18.1024   -6.3509  -34.7688 O.3     1  UNL1       -0.4456
     14 C         -18.1847   -6.3123  -36.1936 C.3     1  UNL1        0.1191
     15 C         -18.6162   -7.6755  -36.7234 C.ar    1  UNL1       -0.0103
     16 C         -17.6501   -8.5863  -37.1540 C.ar    1  UNL1       -0.0554
     17 C         -18.0336   -9.8503  -37.5961 C.ar    1  UNL1       -0.0614
     18 C         -19.3828  -10.1977  -37.6033 C.ar    1  UNL1       -0.0617
     19 C         -20.3535   -9.2929  -37.1785 C.ar    1  UNL1       -0.0614
     20 C         -19.9696   -8.0286  -36.7419 C.ar    1  UNL1       -0.0554
     21 C         -19.9682   -8.2408  -30.9187 C.3     1  UNL1       -0.0196
     22 C         -18.8158   -8.2293  -29.8939 C.3     1  UNL1       -0.0605
     23 C         -19.9224   -9.5374  -31.7522 C.3     1  UNL1       -0.0605
     24 C         -22.2597   -4.3054  -28.9699 C.2     1  UNL1        0.2339
     25 O         -22.9123   -5.3369  -28.8175 O.2     1  UNL1       -0.2738
     26 N         -21.8698   -3.5199  -27.9579 N.am    1  UNL1       -0.3038
     27 C         -22.0701   -3.8631  -26.5443 C.3     1  UNL1        0.0909
     28 C         -20.7652   -4.4202  -25.9170 C.3     1  UNL1       -0.0190
     29 C         -20.2900   -5.7398  -26.5830 C.3     1  UNL1        0.0262
     30 C         -19.1283   -6.3718  -25.7973 C.2     1  UNL1        0.2157
     31 O         -19.4037   -6.9193  -24.7420 O.2     1  UNL1       -0.2756
     32 N         -17.8503   -6.3216  -26.2262 N.am    1  UNL1       -0.3002
     33 C         -17.4254   -5.9847  -27.5688 C.3     1  UNL1        0.0035
     34 C         -16.7108   -6.5695  -25.3310 C.3     1  UNL1        0.0394
     35 C         -15.8871   -5.3046  -25.1619 C.ar    1  UNL1       -0.0301
     36 C         -16.5064   -4.1267  -24.7423 C.ar    1  UNL1       -0.0571
     37 C         -15.7922   -2.9371  -24.7420 C.ar    1  UNL1       -0.0615
     38 C         -14.4602   -2.9366  -25.1422 C.ar    1  UNL1       -0.0617
     39 C         -13.8245   -4.1137  -25.5108 C.ar    1  UNL1       -0.0615
     40 C         -14.5466   -5.2992  -25.5419 C.ar    1  UNL1       -0.0571
     41 C         -22.6076   -2.6158  -25.8424 C.2     1  UNL1        0.2553
     42 O         -22.6047   -1.4854  -26.3441 O.2     1  UNL1       -0.2860
     43 C         -23.1168   -2.8015  -24.4029 C.3     1  UNL1        0.4525
     44 F         -22.0926   -2.9468  -23.5619 F       1  UNL1       -0.1633
     45 F         -23.8049   -1.7372  -24.0245 F       1  UNL1       -0.1633
     46 F         -23.9300   -3.8495  -24.3418 F       1  UNL1       -0.1633
     47 H         -25.8610   -2.3541  -31.1420 H       1  UNL1        0.0232
     48 H         -25.3653   -0.6674  -31.0802 H       1  UNL1        0.0232
     49 H         -24.7773   -1.7372  -32.3419 H       1  UNL1        0.0232
     50 H         -24.2049   -2.4821  -29.5010 H       1  UNL1        0.0296
     51 H         -22.7293   -0.8464  -28.9969 H       1  UNL1        0.0232
     52 H         -21.9372   -0.9267  -30.5584 H       1  UNL1        0.0232
     53 H         -23.3605    0.0707  -30.3409 H       1  UNL1        0.0232
     54 H         -22.6427   -2.8379  -32.1095 H       1  UNL1        0.0290
     55 H         -23.7368   -3.9969  -31.4100 H       1  UNL1        0.0290
     56 H         -21.0249   -3.1547  -30.3077 H       1  UNL1        0.0594
     57 H         -22.1211   -5.4603  -31.7042 H       1  UNL1        0.1495
     58 H         -21.0468   -7.1297  -32.3869 H       1  UNL1        0.0598
     59 H         -18.0542   -7.0092  -32.4768 H       1  UNL1        0.1528
     60 H         -17.2038   -6.0600  -36.5994 H       1  UNL1        0.0749
     61 H         -18.8690   -5.5380  -36.5448 H       1  UNL1        0.0749
     62 H         -16.6049   -8.3195  -37.1426 H       1  UNL1        0.0621
     63 H         -17.2878  -10.5594  -37.9250 H       1  UNL1        0.0618
     64 H         -19.6816  -11.1794  -37.9388 H       1  UNL1        0.0618
     65 H         -21.3990   -9.5671  -37.1853 H       1  UNL1        0.0618
     66 H         -20.7249   -7.3275  -36.4145 H       1  UNL1        0.0621
     67 H         -20.8880   -8.3148  -30.3337 H       1  UNL1        0.0318
     68 H         -18.6588   -9.2147  -29.4526 H       1  UNL1        0.0233
     69 H         -17.8759   -7.9113  -30.3463 H       1  UNL1        0.0233
     70 H         -19.0457   -7.5566  -29.0697 H       1  UNL1        0.0233
     71 H         -19.9489  -10.4210  -31.1132 H       1  UNL1        0.0233
     72 H         -20.7762   -9.6011  -32.4270 H       1  UNL1        0.0233
     73 H         -19.0184   -9.5953  -32.3598 H       1  UNL1        0.0233
     74 H         -21.3264   -2.6842  -28.1475 H       1  UNL1        0.1494
     75 H         -22.8382   -4.6354  -26.4449 H       1  UNL1        0.0580
     76 H         -20.9207   -4.6060  -24.8541 H       1  UNL1        0.0292
     77 H         -19.9732   -3.6727  -26.0029 H       1  UNL1        0.0292
     78 H         -20.0475   -5.5754  -27.6266 H       1  UNL1        0.0359
     79 H         -21.1016   -6.4704  -26.5754 H       1  UNL1        0.0359
     80 H         -16.6550   -5.2157  -27.5486 H       1  UNL1        0.0429
     81 H         -17.0075   -6.9069  -27.9648 H       1  UNL1        0.0429
     82 H         -18.1961   -5.6396  -28.2413 H       1  UNL1        0.0429
     83 H         -16.0896   -7.3659  -25.7452 H       1  UNL1        0.0514
     84 H         -17.0198   -6.9089  -24.3425 H       1  UNL1        0.0514
     85 H         -17.5456   -4.1262  -24.4481 H       1  UNL1        0.0621
     86 H         -16.2631   -2.0213  -24.4142 H       1  UNL1        0.0618
     87 H         -13.9072   -2.0090  -25.1409 H       1  UNL1        0.0618
     88 H         -12.7816   -4.0990  -25.7685 H       1  UNL1        0.0618
     89 H         -14.0671   -6.2089  -25.8689 H       1  UNL1        0.0621
@<TRIPOS>BOND
     1     1     2    1
     2     1    47    1
     3     1    48    1
     4     1    49    1
     5     2     3    1
     6     2     4    1
     7     2    50    1
     8     3    51    1
     9     3    52    1
    10     3    53    1
    11     4     5    1
    12     4    54    1
    13     4    55    1
    14     5     6    1
    15     5    24    1
    16     5    56    1
    17     6     7   am
    18     6    57    1
    19     7     8    2
    20     7     9    1
    21     9    10    1
    22     9    21    1
    23     9    58    1
    24    10    11   am
    25    10    59    1
    26    11    12    2
    27    11    13    1
    28    13    14    1
    29    14    15    1
    30    14    60    1
    31    14    61    1
    32    15    20   ar
    33    15    16   ar
    34    16    17   ar
    35    16    62    1
    36    17    18   ar
    37    17    63    1
    38    18    19   ar
    39    18    64    1
    40    19    20   ar
    41    19    65    1
    42    20    66    1
    43    21    22    1
    44    21    23    1
    45    21    67    1
    46    22    68    1
    47    22    69    1
    48    22    70    1
    49    23    71    1
    50    23    72    1
    51    23    73    1
    52    24    25    2
    53    24    26   am
    54    26    27    1
    55    26    74    1
    56    27    28    1
    57    27    41    1
    58    27    75    1
    59    28    29    1
    60    28    76    1
    61    28    77    1
    62    29    30    1
    63    29    78    1
    64    29    79    1
    65    30    31    2
    66    30    32   am
    67    32    33    1
    68    32    34    1
    69    33    80    1
    70    33    81    1
    71    33    82    1
    72    34    35    1
    73    34    83    1
    74    34    84    1
    75    35    40   ar
    76    35    36   ar
    77    36    37   ar
    78    36    85    1
    79    37    38   ar
    80    37    86    1
    81    38    39   ar
    82    38    87    1
    83    39    40   ar
    84    39    88    1
    85    40    89    1
    86    41    42    2
    87    41    43    1
    88    43    44    1
    89    43    45    1
    90    43    46    1
