@<TRIPOS>MOLECULE
*****
 94 96 0 0 0
SMALL
GASTEIGER
****
Schrodinger Suite 2019-4.
@<TRIPOS>ATOM
      1 C         -27.3655   -4.5253  -24.2995 C.3     1  UNL1       -0.0493
      2 C         -25.8636   -4.3752  -24.5900 C.3     1  UNL1        0.0118
      3 N         -25.0296   -3.7067  -23.5602 N.am    1  UNL1       -0.3020
      4 C         -25.6205   -2.5931  -22.8015 C.3     1  UNL1        0.0118
      5 C         -26.0327   -1.4107  -23.6876 C.3     1  UNL1       -0.0493
      6 C         -23.7061   -3.9904  -23.4157 C.2     1  UNL1        0.2156
      7 O         -22.9809   -3.4203  -22.5934 O.2     1  UNL1       -0.2756
      8 C         -23.0970   -5.0887  -24.3020 C.3     1  UNL1        0.0262
      9 C         -21.5613   -5.1628  -24.3311 C.3     1  UNL1       -0.0189
     10 C         -20.8373   -3.9931  -25.0726 C.3     1  UNL1        0.0886
     11 N         -21.0642   -3.8114  -26.5220 N.am    1  UNL1       -0.3037
     12 C         -21.5303   -4.6697  -27.4473 C.2     1  UNL1        0.2339
     13 O         -21.8679   -5.8369  -27.2319 O.2     1  UNL1       -0.2738
     14 C         -21.6638   -4.0974  -28.8728 C.3     1  UNL1        0.0996
     15 C         -23.1094   -3.5826  -29.0907 C.3     1  UNL1       -0.0236
     16 C         -23.3425   -2.8108  -30.4104 C.3     1  UNL1       -0.0446
     17 C         -22.6234   -1.4455  -30.4131 C.3     1  UNL1       -0.0626
     18 C         -24.8522   -2.6501  -30.6791 C.3     1  UNL1       -0.0626
     19 N         -21.3453   -5.1100  -29.8853 N.am    1  UNL1       -0.3025
     20 C         -20.1510   -5.7158  -30.0314 C.2     1  UNL1        0.2343
     21 O         -19.1403   -5.4110  -29.3917 O.2     1  UNL1       -0.2738
     22 C         -20.1071   -6.8967  -31.0273 C.3     1  UNL1        0.1048
     23 N         -19.2579   -6.5427  -32.1771 N.am    1  UNL1       -0.2696
     24 C         -19.8091   -6.4738  -33.4461 C.2     1  UNL1        0.4012
     25 O         -21.0008   -6.6113  -33.7257 O.2     1  UNL1       -0.2265
     26 O         -18.8447   -6.2108  -34.3482 O.3     1  UNL1       -0.4456
     27 C         -19.1191   -6.1988  -35.7533 C.3     1  UNL1        0.1191
     28 C         -19.1662   -7.6118  -36.3295 C.ar    1  UNL1       -0.0103
     29 C         -20.3445   -8.3601  -36.2699 C.ar    1  UNL1       -0.0554
     30 C         -20.3737   -9.6597  -36.7664 C.ar    1  UNL1       -0.0614
     31 C         -19.2187  -10.2115  -37.3182 C.ar    1  UNL1       -0.0617
     32 C         -18.0424   -9.4675  -37.3939 C.ar    1  UNL1       -0.0614
     33 C         -18.0213   -8.1583  -36.9179 C.ar    1  UNL1       -0.0554
     34 C         -19.5733   -8.1770  -30.3024 C.3     1  UNL1       -0.0196
     35 C         -19.4356   -9.3776  -31.2628 C.3     1  UNL1       -0.0605
     36 C         -20.4529   -8.5931  -29.1027 C.3     1  UNL1       -0.0605
     37 C         -19.3251   -3.9748  -24.8458 C.2     1  UNL1        0.2079
     38 O         -18.8529   -3.0101  -24.2409 O.2     1  UNL1       -0.2879
     39 C         -18.4229   -5.0775  -25.2266 C.ar    1  UNL1        0.1465
     40 N         -17.1246   -5.0545  -25.0677 N.ar    1  UNL1       -0.2360
     41 C         -16.5767   -6.2885  -25.1985 C.ar    1  UNL1        0.0790
     42 C         -15.2323   -6.5923  -24.9849 C.ar    1  UNL1       -0.0352
     43 C         -14.8471   -7.9337  -24.9923 C.ar    1  UNL1       -0.0597
     44 C         -15.7555   -8.9497  -25.2803 C.ar    1  UNL1       -0.0606
     45 C         -17.0876   -8.6636  -25.5648 C.ar    1  UNL1       -0.0459
     46 C         -17.4852   -7.3227  -25.5207 C.ar    1  UNL1        0.0396
     47 S         -19.0487   -6.6111  -25.8110 S.2     1  UNL1       -0.0643
     48 H         -27.7872   -5.3249  -24.9070 H       1  UNL1        0.0245
     49 H         -27.5687   -4.7531  -23.2539 H       1  UNL1        0.0245
     50 H         -27.9079   -3.6271  -24.5879 H       1  UNL1        0.0245
     51 H         -25.7502   -3.8083  -25.5171 H       1  UNL1        0.0462
     52 H         -25.4953   -5.3742  -24.8190 H       1  UNL1        0.0462
     53 H         -24.9320   -2.2145  -22.0424 H       1  UNL1        0.0462
     54 H         -26.4512   -2.9766  -22.2190 H       1  UNL1        0.0462
     55 H         -26.4658   -0.6193  -23.0799 H       1  UNL1        0.0245
     56 H         -25.1603   -1.0101  -24.1994 H       1  UNL1        0.0245
     57 H         -26.7721   -1.6793  -24.4402 H       1  UNL1        0.0245
     58 H         -23.4608   -5.0213  -25.3273 H       1  UNL1        0.0359
     59 H         -23.4678   -6.0323  -23.8997 H       1  UNL1        0.0359
     60 H         -21.3433   -6.1303  -24.7711 H       1  UNL1        0.0292
     61 H         -21.1950   -5.2437  -23.3090 H       1  UNL1        0.0292
     62 H         -21.2347   -3.0779  -24.6335 H       1  UNL1        0.0582
     63 H         -20.8968   -2.8630  -26.8406 H       1  UNL1        0.1495
     64 H         -20.9582   -3.2726  -28.9879 H       1  UNL1        0.0594
     65 H         -23.4035   -2.9446  -28.2547 H       1  UNL1        0.0290
     66 H         -23.7887   -4.4377  -29.0491 H       1  UNL1        0.0290
     67 H         -22.9380   -3.3926  -31.2397 H       1  UNL1        0.0296
     68 H         -23.1855   -0.6659  -30.9277 H       1  UNL1        0.0232
     69 H         -22.4506   -1.0866  -29.3968 H       1  UNL1        0.0232
     70 H         -21.6563   -1.5129  -30.9095 H       1  UNL1        0.0232
     71 H         -25.1042   -1.7051  -31.1646 H       1  UNL1        0.0232
     72 H         -25.2190   -3.4479  -31.3307 H       1  UNL1        0.0232
     73 H         -25.4354   -2.6958  -29.7550 H       1  UNL1        0.0232
     74 H         -22.1263   -5.4373  -30.4325 H       1  UNL1        0.1495
     75 H         -21.1335   -7.1237  -31.3325 H       1  UNL1        0.0598
     76 H         -18.2783   -6.3157  -32.0280 H       1  UNL1        0.1528
     77 H         -18.3230   -5.6395  -36.2427 H       1  UNL1        0.0749
     78 H         -20.0459   -5.6687  -35.9792 H       1  UNL1        0.0749
     79 H         -21.2465   -7.9397  -35.8481 H       1  UNL1        0.0621
     80 H         -21.2855  -10.2369  -36.7217 H       1  UNL1        0.0618
     81 H         -19.2383  -11.2231  -37.7019 H       1  UNL1        0.0618
     82 H         -17.1546   -9.8979  -37.8326 H       1  UNL1        0.0618
     83 H         -17.1097   -7.5807  -36.9857 H       1  UNL1        0.0621
     84 H         -18.5700   -7.9791  -29.9202 H       1  UNL1        0.0318
     85 H         -19.1036  -10.2705  -30.7336 H       1  UNL1        0.0233
     86 H         -20.3869   -9.6122  -31.7402 H       1  UNL1        0.0233
     87 H         -18.7063   -9.1846  -32.0501 H       1  UNL1        0.0233
     88 H         -20.3931   -7.8730  -28.2867 H       1  UNL1        0.0233
     89 H         -21.4992   -8.6869  -29.3926 H       1  UNL1        0.0233
     90 H         -20.1460   -9.5534  -28.6943 H       1  UNL1        0.0233
     91 H         -14.5152   -5.8205  -24.7518 H       1  UNL1        0.0639
     92 H         -13.8121   -8.1873  -24.8001 H       1  UNL1        0.0618
     93 H         -15.4069   -9.9717  -25.3089 H       1  UNL1        0.0618
     94 H         -17.7941   -9.4506  -25.7918 H       1  UNL1        0.0629
@<TRIPOS>BOND
     1     1     2    1
     2     1    48    1
     3     1    49    1
     4     1    50    1
     5     2     3    1
     6     2    51    1
     7     2    52    1
     8     3     4    1
     9     3     6   am
    10     4     5    1
    11     4    53    1
    12     4    54    1
    13     5    55    1
    14     5    56    1
    15     5    57    1
    16     6     7    2
    17     6     8    1
    18     8     9    1
    19     8    58    1
    20     8    59    1
    21     9    10    1
    22     9    60    1
    23     9    61    1
    24    10    11    1
    25    10    37    1
    26    10    62    1
    27    11    12   am
    28    11    63    1
    29    12    13    2
    30    12    14    1
    31    14    15    1
    32    14    19    1
    33    14    64    1
    34    15    16    1
    35    15    65    1
    36    15    66    1
    37    16    17    1
    38    16    18    1
    39    16    67    1
    40    17    68    1
    41    17    69    1
    42    17    70    1
    43    18    71    1
    44    18    72    1
    45    18    73    1
    46    19    20   am
    47    19    74    1
    48    20    21    2
    49    20    22    1
    50    22    23    1
    51    22    34    1
    52    22    75    1
    53    23    24   am
    54    23    76    1
    55    24    25    2
    56    24    26    1
    57    26    27    1
    58    27    28    1
    59    27    77    1
    60    27    78    1
    61    28    33   ar
    62    28    29   ar
    63    29    30   ar
    64    29    79    1
    65    30    31   ar
    66    30    80    1
    67    31    32   ar
    68    31    81    1
    69    32    33   ar
    70    32    82    1
    71    33    83    1
    72    34    35    1
    73    34    36    1
    74    34    84    1
    75    35    85    1
    76    35    86    1
    77    35    87    1
    78    36    88    1
    79    36    89    1
    80    36    90    1
    81    37    38    2
    82    37    39    1
    83    39    47   ar
    84    39    40   ar
    85    40    41   ar
    86    41    46   ar
    87    41    42   ar
    88    42    43   ar
    89    42    91    1
    90    43    44   ar
    91    43    92    1
    92    44    45   ar
    93    44    93    1
    94    45    46   ar
    95    45    94    1
    96    46    47   ar
