
                    3D
 Schrodinger Suite 2019-4.
 90 93  0  0  1  0            999 V2000
  -22.5309   -0.9533  -30.5364 C   0  0  0  0  0  0
  -23.6568   -1.2818  -29.7470 O   0  0  0  0  0  0
  -24.0794   -2.5871  -29.7384 C   0  0  0  0  0  0
  -24.8672   -3.0176  -28.6556 C   0  0  0  0  0  0
  -25.3422   -4.3515  -28.5845 C   0  0  0  0  0  0
  -26.1470   -4.8586  -27.5856 O   0  0  0  0  0  0
  -26.5950   -3.9924  -26.5558 C   0  0  0  0  0  0
  -25.4640   -3.7668  -25.5528 C   0  0  0  0  0  0
  -25.1441   -2.6319  -25.2233 O   0  0  0  0  0  0
  -24.8371   -4.8556  -25.0958 N   0  0  0  0  0  0
  -23.6771   -4.9026  -24.2055 C   0  0  2  0  0  0
  -23.9507   -4.3290  -22.7941 C   0  0  0  0  0  0
  -22.7867   -4.6787  -21.8669 C   0  0  0  0  0  0
  -25.2771   -4.7940  -22.1738 C   0  0  0  0  0  0
  -22.4736   -4.1937  -24.8351 C   0  0  0  0  0  0
  -22.4739   -2.9688  -24.9700 O   0  0  0  0  0  0
  -21.4486   -4.9822  -25.1849 N   0  0  0  0  0  0
  -20.1900   -4.5600  -25.7920 C   0  0  2  0  0  0
  -19.6086   -3.3510  -25.0535 C   0  0  0  0  0  0
  -18.1704   -2.9568  -25.3519 C   0  0  0  0  0  0
  -17.1476   -4.0488  -24.9965 C   0  0  0  0  0  0
  -17.9370   -1.6648  -24.5739 C   0  0  0  0  0  0
  -20.3729   -4.3737  -27.2983 C   0  0  0  0  0  0
  -21.3227   -3.7202  -27.7311 O   0  0  0  0  0  0
  -19.4871   -5.0176  -28.0766 N   0  0  0  0  0  0
  -19.6416   -5.3679  -29.4938 C   0  0  2  0  0  0
  -20.2180   -4.2311  -30.3711 C   0  0  0  0  0  0
  -19.9609   -4.2527  -31.9019 C   0  0  1  0  0  0
  -20.6974   -3.1529  -32.6805 C   0  0  0  0  0  0
  -19.8953   -2.9590  -33.9598 C   0  0  0  0  0  0
  -18.5640   -3.3451  -33.5903 N   0  0  0  0  0  0
  -18.5618   -4.0713  -32.4801 C   0  0  0  0  0  0
  -17.5543   -4.4730  -31.9509 O   0  0  0  0  0  0
  -20.5009   -6.6357  -29.5930 C   0  0  0  0  0  0
  -21.5357   -6.7891  -28.9409 O   0  0  0  0  0  0
  -20.1056   -7.6627  -30.5754 C   0  0  0  0  0  0
  -18.8855   -7.8077  -31.1003 N   0  0  0  0  0  0
  -18.8886   -8.8460  -32.0194 C   0  0  0  0  0  0
  -17.7934   -9.3060  -32.7836 C   0  0  0  0  0  0
  -17.9499  -10.3602  -33.7031 C   0  0  0  0  0  0
  -19.2077  -10.9643  -33.8866 C   0  0  0  0  0  0
  -20.3132  -10.5291  -33.1361 C   0  0  0  0  0  0
  -20.1479   -9.4899  -32.2083 C   0  0  0  0  0  0
  -21.3423   -8.7946  -31.1288 S   0  0  0  0  0  0
  -24.9870   -5.2492  -29.6024 C   0  0  0  0  0  0
  -24.2216   -4.8304  -30.6992 C   0  0  0  0  0  0
  -23.7938   -3.4973  -30.7748 C   0  0  0  0  0  0
  -22.2711    0.0943  -30.4021 H   0  0  0  0  0  0
  -21.6839   -1.5533  -30.2157 H   0  0  0  0  0  0
  -22.7168   -1.1057  -31.5966 H   0  0  0  0  0  0
  -25.0974   -2.3011  -27.8883 H   0  0  0  0  0  0
  -27.4317   -4.4647  -26.0411 H   0  0  0  0  0  0
  -26.9747   -3.0631  -26.9785 H   0  0  0  0  0  0
  -25.1739   -5.7453  -25.4338 H   0  0  0  0  0  0
  -23.4458   -5.9637  -24.1016 H   0  0  0  0  0  0
  -23.9900   -3.2436  -22.8548 H   0  0  0  0  0  0
  -21.9129   -4.0569  -22.0658 H   0  0  0  0  0  0
  -23.0827   -4.5543  -20.8269 H   0  0  0  0  0  0
  -22.4738   -5.7139  -21.9850 H   0  0  0  0  0  0
  -25.4693   -4.2827  -21.2313 H   0  0  0  0  0  0
  -26.1151   -4.5922  -22.8342 H   0  0  0  0  0  0
  -25.2897   -5.8606  -21.9760 H   0  0  0  0  0  0
  -21.5549   -5.9725  -25.0193 H   0  0  0  0  0  0
  -19.5264   -5.4104  -25.6336 H   0  0  0  0  0  0
  -19.7163   -3.5092  -23.9791 H   0  0  0  0  0  0
  -20.1989   -2.4748  -25.3038 H   0  0  0  0  0  0
  -18.0662   -2.7417  -26.4102 H   0  0  0  0  0  0
  -16.1293   -3.7133  -25.1885 H   0  0  0  0  0  0
  -17.2125   -4.3275  -23.9444 H   0  0  0  0  0  0
  -17.2974   -4.9482  -25.5933 H   0  0  0  0  0  0
  -17.8941   -0.7943  -25.2279 H   0  0  0  0  0  0
  -18.7087   -1.4791  -23.8329 H   0  0  0  0  0  0
  -17.0297   -1.7487  -23.9965 H   0  0  0  0  0  0
  -18.7298   -5.4859  -27.6001 H   0  0  0  0  0  0
  -18.6299   -5.5777  -29.8319 H   0  0  0  0  0  0
  -19.9449   -3.2978  -29.9341 H   0  0  0  0  0  0
  -21.2992   -4.2377  -30.2454 H   0  0  0  0  0  0
  -20.2546   -5.2317  -32.2266 H   0  0  0  0  0  0
  -20.6986   -2.2327  -32.1090 H   0  0  0  0  0  0
  -21.7294   -3.3717  -32.9235 H   0  0  0  0  0  0
  -19.9506   -1.9499  -34.3588 H   0  0  0  0  0  0
  -20.2448   -3.6566  -34.7136 H   0  0  0  0  0  0
  -17.7415   -3.0746  -34.1085 H   0  0  0  0  0  0
  -16.8281   -8.8388  -32.6575 H   0  0  0  0  0  0
  -17.1015  -10.7090  -34.2714 H   0  0  0  0  0  0
  -19.3215  -11.7683  -34.5985 H   0  0  0  0  0  0
  -21.2769  -10.9984  -33.2667 H   0  0  0  0  0  0
  -25.3371   -6.2659  -29.5556 H   0  0  0  0  0  0
  -23.9865   -5.5246  -31.4904 H   0  0  0  0  0  0
  -23.2666   -3.1803  -31.6489 H   0  0  0  0  0  0
  1  2  1  0  0  0
  1 48  1  0  0  0
  1 49  1  0  0  0
  1 50  1  0  0  0
  2  3  1  0  0  0
  3 47  1  0  0  0
  3  4  2  0  0  0
  4  5  1  0  0  0
  4 51  1  0  0  0
  5  6  1  0  0  0
  5 45  2  0  0  0
  6  7  1  0  0  0
  7  8  1  0  0  0
  7 52  1  0  0  0
  7 53  1  0  0  0
  8  9  2  0  0  0
  8 10  1  0  0  0
 10 11  1  0  0  0
 10 54  1  0  0  0
 11 12  1  0  0  0
 11 15  1  0  0  0
 11 55  1  0  0  0
 12 13  1  0  0  0
 12 14  1  0  0  0
 12 56  1  0  0  0
 13 57  1  0  0  0
 13 58  1  0  0  0
 13 59  1  0  0  0
 14 60  1  0  0  0
 14 61  1  0  0  0
 14 62  1  0  0  0
 15 16  2  0  0  0
 15 17  1  0  0  0
 17 18  1  0  0  0
 17 63  1  0  0  0
 18 19  1  0  0  0
 18 23  1  0  0  0
 18 64  1  0  0  0
 19 20  1  0  0  0
 19 65  1  0  0  0
 19 66  1  0  0  0
 20 21  1  0  0  0
 20 22  1  0  0  0
 20 67  1  0  0  0
 21 68  1  0  0  0
 21 69  1  0  0  0
 21 70  1  0  0  0
 22 71  1  0  0  0
 22 72  1  0  0  0
 22 73  1  0  0  0
 23 24  2  0  0  0
 23 25  1  0  0  0
 25 26  1  0  0  0
 25 74  1  0  0  0
 26 27  1  0  0  0
 26 34  1  0  0  0
 26 75  1  0  0  0
 27 28  1  0  0  0
 27 76  1  0  0  0
 27 77  1  0  0  0
 28 32  1  0  0  0
 28 29  1  0  0  0
 28 78  1  0  0  0
 29 30  1  0  0  0
 29 79  1  0  0  0
 29 80  1  0  0  0
 30 31  1  0  0  0
 30 81  1  0  0  0
 30 82  1  0  0  0
 31 32  1  0  0  0
 31 83  1  0  0  0
 32 33  2  0  0  0
 34 35  2  0  0  0
 34 36  1  0  0  0
 36 44  1  0  0  0
 36 37  2  0  0  0
 37 38  1  0  0  0
 38 43  1  0  0  0
 38 39  2  0  0  0
 39 40  1  0  0  0
 39 84  1  0  0  0
 40 41  2  0  0  0
 40 85  1  0  0  0
 41 42  1  0  0  0
 41 86  1  0  0  0
 42 43  2  0  0  0
 42 87  1  0  0  0
 43 44  1  0  0  0
 45 46  1  0  0  0
 45 88  1  0  0  0
 46 47  2  0  0  0
 46 89  1  0  0  0
 47 90  1  0  0  0
M  END
$$$$
