@<TRIPOS>MOLECULE
*****
 90 93 0 0 0
SMALL
GASTEIGER
****
Schrodinger Suite 2019-4.
@<TRIPOS>ATOM
      1 C         -22.5309   -0.9533  -30.5364 C.3     1  UNL1        0.0788
      2 O         -23.6568   -1.2818  -29.7470 O.3     1  UNL1       -0.4950
      3 C         -24.0794   -2.5871  -29.7384 C.ar    1  UNL1        0.1236
      4 C         -24.8672   -3.0176  -28.6556 C.ar    1  UNL1        0.0218
      5 C         -25.3422   -4.3515  -28.5845 C.ar    1  UNL1        0.1247
      6 O         -26.1470   -4.8586  -27.5856 O.3     1  UNL1       -0.4827
      7 C         -26.5950   -3.9924  -26.5558 C.3     1  UNL1        0.1652
      8 C         -25.4640   -3.7668  -25.5528 C.2     1  UNL1        0.2513
      9 O         -25.1441   -2.6319  -25.2233 O.2     1  UNL1       -0.2721
     10 N         -24.8371   -4.8556  -25.0958 N.am    1  UNL1       -0.3010
     11 C         -23.6771   -4.9026  -24.2055 C.3     1  UNL1        0.1018
     12 C         -23.9507   -4.3290  -22.7941 C.3     1  UNL1       -0.0197
     13 C         -22.7867   -4.6787  -21.8669 C.3     1  UNL1       -0.0605
     14 C         -25.2771   -4.7940  -22.1738 C.3     1  UNL1       -0.0605
     15 C         -22.4736   -4.1937  -24.8351 C.2     1  UNL1        0.2342
     16 O         -22.4739   -2.9688  -24.9700 O.2     1  UNL1       -0.2738
     17 N         -21.4486   -4.9822  -25.1849 N.am    1  UNL1       -0.3025
     18 C         -20.1900   -4.5600  -25.7920 C.3     1  UNL1        0.0996
     19 C         -19.6086   -3.3510  -25.0535 C.3     1  UNL1       -0.0236
     20 C         -18.1704   -2.9568  -25.3519 C.3     1  UNL1       -0.0446
     21 C         -17.1476   -4.0488  -24.9965 C.3     1  UNL1       -0.0626
     22 C         -17.9370   -1.6648  -24.5739 C.3     1  UNL1       -0.0626
     23 C         -20.3729   -4.3737  -27.2983 C.2     1  UNL1        0.2339
     24 O         -21.3227   -3.7202  -27.7311 O.2     1  UNL1       -0.2738
     25 N         -19.4871   -5.0176  -28.0766 N.am    1  UNL1       -0.3037
     26 C         -19.6416   -5.3679  -29.4938 C.3     1  UNL1        0.0888
     27 C         -20.2180   -4.2311  -30.3711 C.3     1  UNL1       -0.0160
     28 C         -19.9609   -4.2527  -31.9019 C.3     1  UNL1        0.0390
     29 C         -20.6974   -3.1529  -32.6805 C.3     1  UNL1       -0.0262
     30 C         -19.8953   -2.9590  -33.9598 C.3     1  UNL1        0.0123
     31 N         -18.5640   -3.3451  -33.5903 N.am    1  UNL1       -0.3151
     32 C         -18.5618   -4.0713  -32.4801 C.2     1  UNL1        0.2162
     33 O         -17.5543   -4.4730  -31.9509 O.2     1  UNL1       -0.2755
     34 C         -20.5009   -6.6357  -29.5930 C.2     1  UNL1        0.2079
     35 O         -21.5357   -6.7891  -28.9409 O.2     1  UNL1       -0.2879
     36 C         -20.1056   -7.6627  -30.5754 C.ar    1  UNL1        0.1465
     37 N         -18.8855   -7.8077  -31.1003 N.ar    1  UNL1       -0.2360
     38 C         -18.8886   -8.8460  -32.0194 C.ar    1  UNL1        0.0790
     39 C         -17.7934   -9.3060  -32.7836 C.ar    1  UNL1       -0.0352
     40 C         -17.9499  -10.3602  -33.7031 C.ar    1  UNL1       -0.0597
     41 C         -19.2077  -10.9643  -33.8866 C.ar    1  UNL1       -0.0606
     42 C         -20.3132  -10.5291  -33.1361 C.ar    1  UNL1       -0.0459
     43 C         -20.1479   -9.4899  -32.2083 C.ar    1  UNL1        0.0396
     44 S         -21.3423   -8.7946  -31.1288 S.2     1  UNL1       -0.0643
     45 C         -24.9870   -5.2492  -29.6024 C.ar    1  UNL1       -0.0197
     46 C         -24.2216   -4.8304  -30.6992 C.ar    1  UNL1       -0.0549
     47 C         -23.7938   -3.4973  -30.7748 C.ar    1  UNL1       -0.0197
     48 H         -22.2711    0.0943  -30.4021 H       1  UNL1        0.0660
     49 H         -21.6839   -1.5533  -30.2157 H       1  UNL1        0.0660
     50 H         -22.7168   -1.1057  -31.5966 H       1  UNL1        0.0660
     51 H         -25.0974   -2.3011  -27.8883 H       1  UNL1        0.0691
     52 H         -27.4317   -4.4647  -26.0411 H       1  UNL1        0.0795
     53 H         -26.9747   -3.0631  -26.9785 H       1  UNL1        0.0795
     54 H         -25.1739   -5.7453  -25.4338 H       1  UNL1        0.1496
     55 H         -23.4458   -5.9637  -24.1016 H       1  UNL1        0.0597
     56 H         -23.9900   -3.2436  -22.8548 H       1  UNL1        0.0318
     57 H         -21.9129   -4.0569  -22.0658 H       1  UNL1        0.0233
     58 H         -23.0827   -4.5543  -20.8269 H       1  UNL1        0.0233
     59 H         -22.4738   -5.7139  -21.9850 H       1  UNL1        0.0233
     60 H         -25.4693   -4.2827  -21.2313 H       1  UNL1        0.0233
     61 H         -26.1151   -4.5922  -22.8342 H       1  UNL1        0.0233
     62 H         -25.2897   -5.8606  -21.9760 H       1  UNL1        0.0233
     63 H         -21.5549   -5.9725  -25.0193 H       1  UNL1        0.1495
     64 H         -19.5264   -5.4104  -25.6336 H       1  UNL1        0.0594
     65 H         -19.7163   -3.5092  -23.9791 H       1  UNL1        0.0290
     66 H         -20.1989   -2.4748  -25.3038 H       1  UNL1        0.0290
     67 H         -18.0662   -2.7417  -26.4102 H       1  UNL1        0.0296
     68 H         -16.1293   -3.7133  -25.1885 H       1  UNL1        0.0232
     69 H         -17.2125   -4.3275  -23.9444 H       1  UNL1        0.0232
     70 H         -17.2974   -4.9482  -25.5933 H       1  UNL1        0.0232
     71 H         -17.8941   -0.7943  -25.2279 H       1  UNL1        0.0232
     72 H         -18.7087   -1.4791  -23.8329 H       1  UNL1        0.0232
     73 H         -17.0297   -1.7487  -23.9965 H       1  UNL1        0.0232
     74 H         -18.7298   -5.4859  -27.6001 H       1  UNL1        0.1495
     75 H         -18.6299   -5.5777  -29.8319 H       1  UNL1        0.0582
     76 H         -19.9449   -3.2978  -29.9341 H       1  UNL1        0.0295
     77 H         -21.2992   -4.2377  -30.2454 H       1  UNL1        0.0295
     78 H         -20.2546   -5.2317  -32.2266 H       1  UNL1        0.0395
     79 H         -20.6986   -2.2327  -32.1090 H       1  UNL1        0.0288
     80 H         -21.7294   -3.3717  -32.9235 H       1  UNL1        0.0288
     81 H         -19.9506   -1.9499  -34.3588 H       1  UNL1        0.0462
     82 H         -20.2448   -3.6566  -34.7136 H       1  UNL1        0.0462
     83 H         -17.7415   -3.0746  -34.1085 H       1  UNL1        0.1487
     84 H         -16.8281   -8.8388  -32.6575 H       1  UNL1        0.0639
     85 H         -17.1015  -10.7090  -34.2714 H       1  UNL1        0.0618
     86 H         -19.3215  -11.7683  -34.5985 H       1  UNL1        0.0618
     87 H         -21.2769  -10.9984  -33.2667 H       1  UNL1        0.0629
     88 H         -25.3371   -6.2659  -29.5556 H       1  UNL1        0.0654
     89 H         -23.9865   -5.5246  -31.4904 H       1  UNL1        0.0620
     90 H         -23.2666   -3.1803  -31.6489 H       1  UNL1        0.0654
@<TRIPOS>BOND
     1     1     2    1
     2     1    48    1
     3     1    49    1
     4     1    50    1
     5     2     3    1
     6     3    47   ar
     7     3     4   ar
     8     4     5   ar
     9     4    51    1
    10     5     6    1
    11     5    45   ar
    12     6     7    1
    13     7     8    1
    14     7    52    1
    15     7    53    1
    16     8     9    2
    17     8    10   am
    18    10    11    1
    19    10    54    1
    20    11    12    1
    21    11    15    1
    22    11    55    1
    23    12    13    1
    24    12    14    1
    25    12    56    1
    26    13    57    1
    27    13    58    1
    28    13    59    1
    29    14    60    1
    30    14    61    1
    31    14    62    1
    32    15    16    2
    33    15    17   am
    34    17    18    1
    35    17    63    1
    36    18    19    1
    37    18    23    1
    38    18    64    1
    39    19    20    1
    40    19    65    1
    41    19    66    1
    42    20    21    1
    43    20    22    1
    44    20    67    1
    45    21    68    1
    46    21    69    1
    47    21    70    1
    48    22    71    1
    49    22    72    1
    50    22    73    1
    51    23    24    2
    52    23    25   am
    53    25    26    1
    54    25    74    1
    55    26    27    1
    56    26    34    1
    57    26    75    1
    58    27    28    1
    59    27    76    1
    60    27    77    1
    61    28    32    1
    62    28    29    1
    63    28    78    1
    64    29    30    1
    65    29    79    1
    66    29    80    1
    67    30    31    1
    68    30    81    1
    69    30    82    1
    70    31    32   am
    71    31    83    1
    72    32    33    2
    73    34    35    2
    74    34    36    1
    75    36    44   ar
    76    36    37   ar
    77    37    38   ar
    78    38    43   ar
    79    38    39   ar
    80    39    40   ar
    81    39    84    1
    82    40    41   ar
    83    40    85    1
    84    41    42   ar
    85    41    86    1
    86    42    43   ar
    87    42    87    1
    88    43    44   ar
    89    45    46   ar
    90    45    88    1
    91    46    47   ar
    92    46    89    1
    93    47    90    1
