@<TRIPOS>MOLECULE
*****
 68 70 0 0 0
SMALL
GASTEIGER
****
Schrodinger Suite 2019-4.
@<TRIPOS>ATOM
      1 C         -24.6099   -4.9048  -20.8562 C.3     1  UNL1       -0.0622
      2 C         -25.2039   -4.8612  -22.2770 C.3     1  UNL1       -0.0385
      3 C         -25.5890   -6.2712  -22.7691 C.3     1  UNL1       -0.0622
      4 C         -24.3362   -4.0576  -23.2897 C.3     1  UNL1        0.0263
      5 C         -22.9594   -4.6367  -23.6725 C.2     1  UNL1        0.2139
      6 O         -22.3952   -5.4538  -22.9462 O.2     1  UNL1       -0.2758
      7 N         -22.4321   -4.1508  -24.8121 N.am    1  UNL1       -0.3040
      8 C         -21.1705   -4.4785  -25.4947 C.3     1  UNL1        0.0996
      9 C         -20.0315   -4.9766  -24.5524 C.3     1  UNL1       -0.0236
     10 C         -18.5876   -5.0562  -25.1168 C.3     1  UNL1       -0.0446
     11 C         -18.1914   -3.8352  -25.9621 C.3     1  UNL1       -0.0626
     12 C         -18.2551   -6.3832  -25.8299 C.3     1  UNL1       -0.0626
     13 C         -21.4461   -5.3873  -26.7027 C.2     1  UNL1        0.2339
     14 O         -21.6810   -6.5861  -26.5450 O.2     1  UNL1       -0.2738
     15 N         -21.4033   -4.7782  -27.9012 N.am    1  UNL1       -0.3037
     16 C         -21.4279   -5.4406  -29.2205 C.3     1  UNL1        0.0888
     17 C         -21.9282   -4.4553  -30.3197 C.3     1  UNL1       -0.0160
     18 C         -23.4764   -4.3293  -30.4537 C.3     1  UNL1        0.0390
     19 C         -23.8940   -3.5379  -31.6943 C.3     1  UNL1       -0.0262
     20 C         -24.0555   -2.1128  -31.1968 C.3     1  UNL1        0.0123
     21 N         -24.3866   -2.3132  -29.7951 N.am    1  UNL1       -0.3151
     22 C         -24.0826   -3.5198  -29.2925 C.2     1  UNL1        0.2162
     23 O         -24.2848   -3.9115  -28.1446 O.2     1  UNL1       -0.2755
     24 C         -20.0018   -5.9333  -29.5322 C.2     1  UNL1        0.2079
     25 O         -19.0320   -5.5117  -28.8964 O.2     1  UNL1       -0.2879
     26 C         -19.7545   -6.8796  -30.6270 C.ar    1  UNL1        0.1465
     27 N         -18.5667   -7.2469  -31.0279 N.ar    1  UNL1       -0.2360
     28 C         -18.6098   -8.0826  -32.0951 C.ar    1  UNL1        0.0790
     29 C         -17.4856   -8.6040  -32.7498 C.ar    1  UNL1       -0.0352
     30 C         -17.6888   -9.4468  -33.8430 C.ar    1  UNL1       -0.0597
     31 C         -18.9747   -9.7702  -34.2766 C.ar    1  UNL1       -0.0606
     32 C         -20.1093   -9.2649  -33.6386 C.ar    1  UNL1       -0.0459
     33 C         -19.9143   -8.4159  -32.5400 C.ar    1  UNL1        0.0396
     34 S         -21.0871   -7.6069  -31.5082 S.2     1  UNL1       -0.0643
     35 H         -24.2874   -3.9129  -20.5446 H       1  UNL1        0.0232
     36 H         -25.3493   -5.2545  -20.1347 H       1  UNL1        0.0232
     37 H         -23.7460   -5.5678  -20.7845 H       1  UNL1        0.0232
     38 H         -26.1403   -4.3063  -22.1904 H       1  UNL1        0.0300
     39 H         -26.0705   -6.2327  -23.7457 H       1  UNL1        0.0232
     40 H         -24.7183   -6.9203  -22.8563 H       1  UNL1        0.0232
     41 H         -26.2866   -6.7519  -22.0814 H       1  UNL1        0.0232
     42 H         -24.1520   -3.0626  -22.8825 H       1  UNL1        0.0361
     43 H         -24.9183   -3.9159  -24.2024 H       1  UNL1        0.0361
     44 H         -22.9975   -3.4888  -25.3240 H       1  UNL1        0.1494
     45 H         -20.8467   -3.5139  -25.8873 H       1  UNL1        0.0594
     46 H         -20.2837   -5.9564  -24.1457 H       1  UNL1        0.0290
     47 H         -19.9973   -4.2969  -23.7011 H       1  UNL1        0.0290
     48 H         -17.9329   -5.0311  -24.2458 H       1  UNL1        0.0296
     49 H         -17.1179   -3.8239  -26.1461 H       1  UNL1        0.0232
     50 H         -18.6776   -3.8512  -26.9335 H       1  UNL1        0.0232
     51 H         -18.4638   -2.8984  -25.4762 H       1  UNL1        0.0232
     52 H         -17.6214   -6.2276  -26.7051 H       1  UNL1        0.0232
     53 H         -17.7145   -7.0589  -25.1617 H       1  UNL1        0.0232
     54 H         -19.1424   -6.9193  -26.1674 H       1  UNL1        0.0232
     55 H         -21.2388   -3.7808  -27.9255 H       1  UNL1        0.1495
     56 H         -22.1066   -6.2950  -29.1687 H       1  UNL1        0.0582
     57 H         -21.5609   -4.7741  -31.2955 H       1  UNL1        0.0295
     58 H         -21.4833   -3.4686  -30.1683 H       1  UNL1        0.0295
     59 H         -23.9506   -5.3114  -30.4971 H       1  UNL1        0.0395
     60 H         -24.8579   -3.9042  -32.0554 H       1  UNL1        0.0288
     61 H         -23.2043   -3.6102  -32.5359 H       1  UNL1        0.0288
     62 H         -24.8571   -1.5871  -31.7185 H       1  UNL1        0.0462
     63 H         -23.1378   -1.5298  -31.2882 H       1  UNL1        0.0462
     64 H         -24.6821   -1.5536  -29.1970 H       1  UNL1        0.1487
     65 H         -16.4896   -8.3546  -32.4158 H       1  UNL1        0.0639
     66 H         -16.8357   -9.8553  -34.3671 H       1  UNL1        0.0618
     67 H         -19.0888  -10.4216  -35.1308 H       1  UNL1        0.0618
     68 H         -21.1001   -9.5189  -33.9854 H       1  UNL1        0.0629
@<TRIPOS>BOND
     1     1     2    1
     2     1    35    1
     3     1    36    1
     4     1    37    1
     5     2     3    1
     6     2     4    1
     7     2    38    1
     8     3    39    1
     9     3    40    1
    10     3    41    1
    11     4     5    1
    12     4    42    1
    13     4    43    1
    14     5     6    2
    15     5     7   am
    16     7     8    1
    17     7    44    1
    18     8     9    1
    19     8    13    1
    20     8    45    1
    21     9    10    1
    22     9    46    1
    23     9    47    1
    24    10    11    1
    25    10    12    1
    26    10    48    1
    27    11    49    1
    28    11    50    1
    29    11    51    1
    30    12    52    1
    31    12    53    1
    32    12    54    1
    33    13    14    2
    34    13    15   am
    35    15    16    1
    36    15    55    1
    37    16    17    1
    38    16    24    1
    39    16    56    1
    40    17    18    1
    41    17    57    1
    42    17    58    1
    43    18    22    1
    44    18    19    1
    45    18    59    1
    46    19    20    1
    47    19    60    1
    48    19    61    1
    49    20    21    1
    50    20    62    1
    51    20    63    1
    52    21    22   am
    53    21    64    1
    54    22    23    2
    55    24    25    2
    56    24    26    1
    57    26    34   ar
    58    26    27   ar
    59    27    28   ar
    60    28    33   ar
    61    28    29   ar
    62    29    30   ar
    63    29    65    1
    64    30    31   ar
    65    30    66    1
    66    31    32   ar
    67    31    67    1
    68    32    33   ar
    69    32    68    1
    70    33    34   ar
