
                    3D
 Schrodinger Suite 2019-4.
 68 70  0  0  1  0            999 V2000
  -24.6099   -4.9048  -20.8562 C   0  0  0  0  0  0
  -25.2039   -4.8612  -22.2770 C   0  0  0  0  0  0
  -25.5890   -6.2712  -22.7691 C   0  0  0  0  0  0
  -24.3362   -4.0576  -23.2897 C   0  0  0  0  0  0
  -22.9594   -4.6367  -23.6725 C   0  0  0  0  0  0
  -22.3952   -5.4538  -22.9462 O   0  0  0  0  0  0
  -22.4321   -4.1508  -24.8121 N   0  0  0  0  0  0
  -21.1705   -4.4785  -25.4947 C   0  0  1  0  0  0
  -20.0315   -4.9766  -24.5524 C   0  0  0  0  0  0
  -18.5876   -5.0562  -25.1168 C   0  0  0  0  0  0
  -18.1914   -3.8352  -25.9621 C   0  0  0  0  0  0
  -18.2551   -6.3832  -25.8299 C   0  0  0  0  0  0
  -21.4461   -5.3873  -26.7027 C   0  0  0  0  0  0
  -21.6810   -6.5861  -26.5450 O   0  0  0  0  0  0
  -21.4033   -4.7782  -27.9012 N   0  0  0  0  0  0
  -21.4279   -5.4406  -29.2205 C   0  0  1  0  0  0
  -21.9282   -4.4553  -30.3197 C   0  0  0  0  0  0
  -23.4764   -4.3293  -30.4537 C   0  0  2  0  0  0
  -23.8940   -3.5379  -31.6943 C   0  0  0  0  0  0
  -24.0555   -2.1128  -31.1968 C   0  0  0  0  0  0
  -24.3866   -2.3132  -29.7951 N   0  0  0  0  0  0
  -24.0826   -3.5198  -29.2925 C   0  0  0  0  0  0
  -24.2848   -3.9115  -28.1446 O   0  0  0  0  0  0
  -20.0018   -5.9333  -29.5322 C   0  0  0  0  0  0
  -19.0320   -5.5117  -28.8964 O   0  0  0  0  0  0
  -19.7545   -6.8796  -30.6270 C   0  0  0  0  0  0
  -18.5667   -7.2469  -31.0279 N   0  0  0  0  0  0
  -18.6098   -8.0826  -32.0951 C   0  0  0  0  0  0
  -17.4856   -8.6040  -32.7498 C   0  0  0  0  0  0
  -17.6888   -9.4468  -33.8430 C   0  0  0  0  0  0
  -18.9747   -9.7702  -34.2766 C   0  0  0  0  0  0
  -20.1093   -9.2649  -33.6386 C   0  0  0  0  0  0
  -19.9143   -8.4159  -32.5400 C   0  0  0  0  0  0
  -21.0871   -7.6069  -31.5082 S   0  0  0  0  0  0
  -24.2874   -3.9129  -20.5446 H   0  0  0  0  0  0
  -25.3493   -5.2545  -20.1347 H   0  0  0  0  0  0
  -23.7460   -5.5678  -20.7845 H   0  0  0  0  0  0
  -26.1403   -4.3063  -22.1904 H   0  0  0  0  0  0
  -26.0705   -6.2327  -23.7457 H   0  0  0  0  0  0
  -24.7183   -6.9203  -22.8563 H   0  0  0  0  0  0
  -26.2866   -6.7519  -22.0814 H   0  0  0  0  0  0
  -24.1520   -3.0626  -22.8825 H   0  0  0  0  0  0
  -24.9183   -3.9159  -24.2024 H   0  0  0  0  0  0
  -22.9975   -3.4888  -25.3240 H   0  0  0  0  0  0
  -20.8467   -3.5139  -25.8873 H   0  0  0  0  0  0
  -20.2837   -5.9564  -24.1457 H   0  0  0  0  0  0
  -19.9973   -4.2969  -23.7011 H   0  0  0  0  0  0
  -17.9329   -5.0311  -24.2458 H   0  0  0  0  0  0
  -17.1179   -3.8239  -26.1461 H   0  0  0  0  0  0
  -18.6776   -3.8512  -26.9335 H   0  0  0  0  0  0
  -18.4638   -2.8984  -25.4762 H   0  0  0  0  0  0
  -17.6214   -6.2276  -26.7051 H   0  0  0  0  0  0
  -17.7145   -7.0589  -25.1617 H   0  0  0  0  0  0
  -19.1424   -6.9193  -26.1674 H   0  0  0  0  0  0
  -21.2388   -3.7808  -27.9255 H   0  0  0  0  0  0
  -22.1066   -6.2950  -29.1687 H   0  0  0  0  0  0
  -21.5609   -4.7741  -31.2955 H   0  0  0  0  0  0
  -21.4833   -3.4686  -30.1683 H   0  0  0  0  0  0
  -23.9506   -5.3114  -30.4971 H   0  0  0  0  0  0
  -24.8579   -3.9042  -32.0554 H   0  0  0  0  0  0
  -23.2043   -3.6102  -32.5359 H   0  0  0  0  0  0
  -24.8571   -1.5871  -31.7185 H   0  0  0  0  0  0
  -23.1378   -1.5298  -31.2882 H   0  0  0  0  0  0
  -24.6821   -1.5536  -29.1970 H   0  0  0  0  0  0
  -16.4896   -8.3546  -32.4158 H   0  0  0  0  0  0
  -16.8357   -9.8553  -34.3671 H   0  0  0  0  0  0
  -19.0888  -10.4216  -35.1308 H   0  0  0  0  0  0
  -21.1001   -9.5189  -33.9854 H   0  0  0  0  0  0
  1  2  1  0  0  0
  1 35  1  0  0  0
  1 36  1  0  0  0
  1 37  1  0  0  0
  2  3  1  0  0  0
  2  4  1  0  0  0
  2 38  1  0  0  0
  3 39  1  0  0  0
  3 40  1  0  0  0
  3 41  1  0  0  0
  4  5  1  0  0  0
  4 42  1  0  0  0
  4 43  1  0  0  0
  5  6  2  0  0  0
  5  7  1  0  0  0
  7  8  1  0  0  0
  7 44  1  0  0  0
  8  9  1  0  0  0
  8 13  1  0  0  0
  8 45  1  0  0  0
  9 10  1  0  0  0
  9 46  1  0  0  0
  9 47  1  0  0  0
 10 11  1  0  0  0
 10 12  1  0  0  0
 10 48  1  0  0  0
 11 49  1  0  0  0
 11 50  1  0  0  0
 11 51  1  0  0  0
 12 52  1  0  0  0
 12 53  1  0  0  0
 12 54  1  0  0  0
 13 14  2  0  0  0
 13 15  1  0  0  0
 15 16  1  0  0  0
 15 55  1  0  0  0
 16 17  1  0  0  0
 16 24  1  0  0  0
 16 56  1  0  0  0
 17 18  1  0  0  0
 17 57  1  0  0  0
 17 58  1  0  0  0
 18 22  1  0  0  0
 18 19  1  0  0  0
 18 59  1  0  0  0
 19 20  1  0  0  0
 19 60  1  0  0  0
 19 61  1  0  0  0
 20 21  1  0  0  0
 20 62  1  0  0  0
 20 63  1  0  0  0
 21 22  1  0  0  0
 21 64  1  0  0  0
 22 23  2  0  0  0
 24 25  2  0  0  0
 24 26  1  0  0  0
 26 34  1  0  0  0
 26 27  2  0  0  0
 27 28  1  0  0  0
 28 33  2  0  0  0
 28 29  1  0  0  0
 29 30  2  0  0  0
 29 65  1  0  0  0
 30 31  1  0  0  0
 30 66  1  0  0  0
 31 32  2  0  0  0
 31 67  1  0  0  0
 32 33  1  0  0  0
 32 68  1  0  0  0
 33 34  1  0  0  0
M  END
$$$$
