@<TRIPOS>MOLECULE
*****
 63 65 0 0 0
SMALL
GASTEIGER
****
Schrodinger Suite 2019-4.
@<TRIPOS>ATOM
      1 C         -18.5259   -9.3658  -29.3888 C.3     1  UNL1       -0.0442
      2 C         -19.6928   -9.2189  -28.3971 C.3     1  UNL1        0.0262
      3 C         -21.0137   -9.5792  -29.1069 C.3     1  UNL1       -0.0442
      4 C         -19.4395  -10.1477  -27.1896 C.3     1  UNL1       -0.0442
      5 N         -19.7126   -7.8163  -27.9788 N.am    1  UNL1       -0.3087
      6 C         -20.5110   -7.2350  -27.0663 C.2     1  UNL1        0.2389
      7 O         -21.4017   -7.8320  -26.4675 O.2     1  UNL1       -0.2734
      8 C         -20.2353   -5.7504  -26.7683 C.3     1  UNL1        0.1338
      9 C         -18.9021   -5.6225  -26.0678 C.ar    1  UNL1        0.0002
     10 C         -18.1831   -6.6778  -25.4397 C.ar    1  UNL1       -0.0534
     11 C         -16.8895   -6.4572  -24.9390 C.ar    1  UNL1       -0.0433
     12 C         -16.3598   -5.1640  -25.0245 C.ar    1  UNL1        0.0276
     13 N         -17.0386   -4.1305  -25.5478 N.ar    1  UNL1       -0.2629
     14 C         -18.2645   -4.3635  -26.0504 C.ar    1  UNL1        0.0330
     15 N         -21.4028   -5.0256  -26.1806 N.am    1  UNL1       -0.2501
     16 C         -21.5187   -4.6169  -24.8804 C.2     1  UNL1        0.2696
     17 O         -20.6098   -4.7145  -24.0604 O.2     1  UNL1       -0.2679
     18 C         -22.7392   -3.9201  -24.3965 C.ar    1  UNL1        0.1217
     19 N         -24.0211   -4.1955  -24.8507 N.ar    1  UNL1       -0.3408
     20 C         -24.8634   -3.4139  -24.1718 C.ar    1  UNL1        0.0939
     21 N         -24.2594   -2.6474  -23.2772 N.ar    1  UNL1       -0.2435
     22 C         -22.9132   -2.9827  -23.4010 C.ar    1  UNL1        0.0577
     23 C         -22.3151   -4.5899  -27.1810 C.ar    1  UNL1        0.0378
     24 C         -23.2664   -5.4743  -27.7245 C.ar    1  UNL1       -0.0400
     25 C         -24.0098   -5.0995  -28.8551 C.ar    1  UNL1       -0.0563
     26 C         -23.8237   -3.8330  -29.4604 C.ar    1  UNL1       -0.0419
     27 C         -24.4986   -3.4539  -30.7872 C.3     1  UNL1       -0.0127
     28 C         -25.4169   -2.2464  -30.6017 C.3     1  UNL1       -0.0560
     29 C         -25.3627   -4.5832  -31.3567 C.3     1  UNL1       -0.0560
     30 C         -23.4192   -3.1210  -31.8290 C.3     1  UNL1       -0.0560
     31 C         -22.9288   -2.9235  -28.8517 C.ar    1  UNL1       -0.0563
     32 C         -22.1735   -3.3039  -27.7286 C.ar    1  UNL1       -0.0400
     33 H         -17.5720   -9.1201  -28.9191 H       1  UNL1        0.0250
     34 H         -18.4501  -10.3851  -29.7681 H       1  UNL1        0.0250
     35 H         -18.6447   -8.7043  -30.2484 H       1  UNL1        0.0250
     36 H         -21.8763   -9.4713  -28.4508 H       1  UNL1        0.0250
     37 H         -21.1845   -8.9374  -29.9719 H       1  UNL1        0.0250
     38 H         -21.0020  -10.6099  -29.4615 H       1  UNL1        0.0250
     39 H         -20.2659  -10.1383  -26.4799 H       1  UNL1        0.0250
     40 H         -19.3110  -11.1807  -27.5123 H       1  UNL1        0.0250
     41 H         -18.5371   -9.8588  -26.6496 H       1  UNL1        0.0250
     42 H         -19.0121   -7.2283  -28.4062 H       1  UNL1        0.1493
     43 H         -20.0828   -5.3076  -27.7560 H       1  UNL1        0.0652
     44 H         -18.5839   -7.6770  -25.3647 H       1  UNL1        0.0622
     45 H         -16.3107   -7.2619  -24.5113 H       1  UNL1        0.0633
     46 H         -15.3580   -4.9558  -24.6942 H       1  UNL1        0.0829
     47 H         -18.7583   -3.5035  -26.4747 H       1  UNL1        0.0833
     48 H         -24.2711   -4.8569  -25.5724 H       1  UNL1        0.1669
     49 H         -25.9300   -3.4119  -24.3196 H       1  UNL1        0.1027
     50 H         -22.1721   -2.5282  -22.7620 H       1  UNL1        0.0853
     51 H         -23.3932   -6.4647  -27.3163 H       1  UNL1        0.0636
     52 H         -24.6795   -5.8356  -29.2688 H       1  UNL1        0.0621
     53 H         -25.9072   -1.9628  -31.5341 H       1  UNL1        0.0238
     54 H         -26.1946   -2.4941  -29.8809 H       1  UNL1        0.0238
     55 H         -24.8614   -1.3778  -30.2523 H       1  UNL1        0.0238
     56 H         -25.7949   -4.3112  -32.3201 H       1  UNL1        0.0238
     57 H         -24.7817   -5.4922  -31.5004 H       1  UNL1        0.0238
     58 H         -26.1817   -4.8057  -30.6799 H       1  UNL1        0.0238
     59 H         -23.8707   -2.8546  -32.7786 H       1  UNL1        0.0238
     60 H         -22.7959   -2.2774  -31.5318 H       1  UNL1        0.0238
     61 H         -22.7626   -3.9745  -32.0031 H       1  UNL1        0.0238
     62 H         -22.7696   -1.9430  -29.2728 H       1  UNL1        0.0621
     63 H         -21.4448   -2.6333  -27.3086 H       1  UNL1        0.0636
@<TRIPOS>BOND
     1     1     2    1
     2     1    33    1
     3     1    34    1
     4     1    35    1
     5     2     3    1
     6     2     4    1
     7     2     5    1
     8     3    36    1
     9     3    37    1
    10     3    38    1
    11     4    39    1
    12     4    40    1
    13     4    41    1
    14     5     6   am
    15     5    42    1
    16     6     7    2
    17     6     8    1
    18     8     9    1
    19     8    15    1
    20     8    43    1
    21     9    14   ar
    22     9    10   ar
    23    10    11   ar
    24    10    44    1
    25    11    12   ar
    26    11    45    1
    27    12    13   ar
    28    12    46    1
    29    13    14   ar
    30    14    47    1
    31    15    16   am
    32    15    23    1
    33    16    17    2
    34    16    18    1
    35    18    22   ar
    36    18    19   ar
    37    19    20   ar
    38    19    48    1
    39    20    21   ar
    40    20    49    1
    41    21    22   ar
    42    22    50    1
    43    23    32   ar
    44    23    24   ar
    45    24    25   ar
    46    24    51    1
    47    25    26   ar
    48    25    52    1
    49    26    27    1
    50    26    31   ar
    51    27    28    1
    52    27    29    1
    53    27    30    1
    54    28    53    1
    55    28    54    1
    56    28    55    1
    57    29    56    1
    58    29    57    1
    59    29    58    1
    60    30    59    1
    61    30    60    1
    62    30    61    1
    63    31    32   ar
    64    31    62    1
    65    32    63    1
