
                    3D
 Schrodinger Suite 2019-4.
 63 65  0  0  1  0            999 V2000
  -18.5259   -9.3658  -29.3888 C   0  0  0  0  0  0
  -19.6928   -9.2189  -28.3971 C   0  0  0  0  0  0
  -21.0137   -9.5792  -29.1069 C   0  0  0  0  0  0
  -19.4395  -10.1477  -27.1896 C   0  0  0  0  0  0
  -19.7126   -7.8163  -27.9788 N   0  0  0  0  0  0
  -20.5110   -7.2350  -27.0663 C   0  0  0  0  0  0
  -21.4017   -7.8320  -26.4675 O   0  0  0  0  0  0
  -20.2353   -5.7504  -26.7683 C   0  0  2  0  0  0
  -18.9021   -5.6225  -26.0678 C   0  0  0  0  0  0
  -18.1831   -6.6778  -25.4397 C   0  0  0  0  0  0
  -16.8895   -6.4572  -24.9390 C   0  0  0  0  0  0
  -16.3598   -5.1640  -25.0245 C   0  0  0  0  0  0
  -17.0386   -4.1305  -25.5478 N   0  0  0  0  0  0
  -18.2645   -4.3635  -26.0504 C   0  0  0  0  0  0
  -21.4028   -5.0256  -26.1806 N   0  0  0  0  0  0
  -21.5187   -4.6169  -24.8804 C   0  0  0  0  0  0
  -20.6098   -4.7145  -24.0604 O   0  0  0  0  0  0
  -22.7392   -3.9201  -24.3965 C   0  0  0  0  0  0
  -24.0211   -4.1955  -24.8507 N   0  0  0  0  0  0
  -24.8634   -3.4139  -24.1718 C   0  0  0  0  0  0
  -24.2594   -2.6474  -23.2772 N   0  0  0  0  0  0
  -22.9132   -2.9827  -23.4010 C   0  0  0  0  0  0
  -22.3151   -4.5899  -27.1810 C   0  0  0  0  0  0
  -23.2664   -5.4743  -27.7245 C   0  0  0  0  0  0
  -24.0098   -5.0995  -28.8551 C   0  0  0  0  0  0
  -23.8237   -3.8330  -29.4604 C   0  0  0  0  0  0
  -24.4986   -3.4539  -30.7872 C   0  0  0  0  0  0
  -25.4169   -2.2464  -30.6017 C   0  0  0  0  0  0
  -25.3627   -4.5832  -31.3567 C   0  0  0  0  0  0
  -23.4192   -3.1210  -31.8290 C   0  0  0  0  0  0
  -22.9288   -2.9235  -28.8517 C   0  0  0  0  0  0
  -22.1735   -3.3039  -27.7286 C   0  0  0  0  0  0
  -17.5720   -9.1201  -28.9191 H   0  0  0  0  0  0
  -18.4501  -10.3851  -29.7681 H   0  0  0  0  0  0
  -18.6447   -8.7043  -30.2484 H   0  0  0  0  0  0
  -21.8763   -9.4713  -28.4508 H   0  0  0  0  0  0
  -21.1845   -8.9374  -29.9719 H   0  0  0  0  0  0
  -21.0020  -10.6099  -29.4615 H   0  0  0  0  0  0
  -20.2659  -10.1383  -26.4799 H   0  0  0  0  0  0
  -19.3110  -11.1807  -27.5123 H   0  0  0  0  0  0
  -18.5371   -9.8588  -26.6496 H   0  0  0  0  0  0
  -19.0121   -7.2283  -28.4062 H   0  0  0  0  0  0
  -20.0828   -5.3076  -27.7560 H   0  0  0  0  0  0
  -18.5839   -7.6770  -25.3647 H   0  0  0  0  0  0
  -16.3107   -7.2619  -24.5113 H   0  0  0  0  0  0
  -15.3580   -4.9558  -24.6942 H   0  0  0  0  0  0
  -18.7583   -3.5035  -26.4747 H   0  0  0  0  0  0
  -24.2711   -4.8569  -25.5724 H   0  0  0  0  0  0
  -25.9300   -3.4119  -24.3196 H   0  0  0  0  0  0
  -22.1721   -2.5282  -22.7620 H   0  0  0  0  0  0
  -23.3932   -6.4647  -27.3163 H   0  0  0  0  0  0
  -24.6795   -5.8356  -29.2688 H   0  0  0  0  0  0
  -25.9072   -1.9628  -31.5341 H   0  0  0  0  0  0
  -26.1946   -2.4941  -29.8809 H   0  0  0  0  0  0
  -24.8614   -1.3778  -30.2523 H   0  0  0  0  0  0
  -25.7949   -4.3112  -32.3201 H   0  0  0  0  0  0
  -24.7817   -5.4922  -31.5004 H   0  0  0  0  0  0
  -26.1817   -4.8057  -30.6799 H   0  0  0  0  0  0
  -23.8707   -2.8546  -32.7786 H   0  0  0  0  0  0
  -22.7959   -2.2774  -31.5318 H   0  0  0  0  0  0
  -22.7626   -3.9745  -32.0031 H   0  0  0  0  0  0
  -22.7696   -1.9430  -29.2728 H   0  0  0  0  0  0
  -21.4448   -2.6333  -27.3086 H   0  0  0  0  0  0
  1  2  1  0  0  0
  1 33  1  0  0  0
  1 34  1  0  0  0
  1 35  1  0  0  0
  2  3  1  0  0  0
  2  4  1  0  0  0
  2  5  1  0  0  0
  3 36  1  0  0  0
  3 37  1  0  0  0
  3 38  1  0  0  0
  4 39  1  0  0  0
  4 40  1  0  0  0
  4 41  1  0  0  0
  5  6  1  0  0  0
  5 42  1  0  0  0
  6  7  2  0  0  0
  6  8  1  0  0  0
  8  9  1  0  0  0
  8 15  1  0  0  0
  8 43  1  0  0  0
  9 14  1  0  0  0
  9 10  2  0  0  0
 10 11  1  0  0  0
 10 44  1  0  0  0
 11 12  2  0  0  0
 11 45  1  0  0  0
 12 13  1  0  0  0
 12 46  1  0  0  0
 13 14  2  0  0  0
 14 47  1  0  0  0
 15 16  1  0  0  0
 15 23  1  0  0  0
 16 17  2  0  0  0
 16 18  1  0  0  0
 18 22  2  0  0  0
 18 19  1  0  0  0
 19 20  1  0  0  0
 19 48  1  0  0  0
 20 21  2  0  0  0
 20 49  1  0  0  0
 21 22  1  0  0  0
 22 50  1  0  0  0
 23 32  1  0  0  0
 23 24  2  0  0  0
 24 25  1  0  0  0
 24 51  1  0  0  0
 25 26  2  0  0  0
 25 52  1  0  0  0
 26 27  1  0  0  0
 26 31  1  0  0  0
 27 28  1  0  0  0
 27 29  1  0  0  0
 27 30  1  0  0  0
 28 53  1  0  0  0
 28 54  1  0  0  0
 28 55  1  0  0  0
 29 56  1  0  0  0
 29 57  1  0  0  0
 29 58  1  0  0  0
 30 59  1  0  0  0
 30 60  1  0  0  0
 30 61  1  0  0  0
 31 32  2  0  0  0
 31 62  1  0  0  0
 32 63  1  0  0  0
M  END
$$$$
