
                    3D
 Schrodinger Suite 2019-4.
 86 89  0  0  1  0            999 V2000
  -21.7595   -1.2176  -31.2403 C   0  0  0  0  0  0
  -22.2437   -2.6406  -30.8800 C   0  0  0  0  0  0
  -23.7694   -2.7905  -31.0625 C   0  0  0  0  0  0
  -21.7725   -3.0585  -29.4641 C   0  0  0  0  0  0
  -22.1357   -4.5136  -29.0548 C   0  0  1  0  0  0
  -21.6551   -5.5111  -30.0243 N   0  0  0  0  0  0
  -20.3710   -5.8506  -30.2575 C   0  0  0  0  0  0
  -19.4148   -5.1786  -29.8658 O   0  0  0  0  0  0
  -20.0738   -7.1905  -30.9929 C   0  0  2  0  0  0
  -19.3373   -6.9428  -32.2510 N   0  0  0  0  0  0
  -19.9851   -6.7491  -33.4640 C   0  0  0  0  0  0
  -21.1970   -6.7363  -33.6485 O   0  0  0  0  0  0
  -19.0856   -6.5725  -34.4330 O   0  0  0  0  0  0
  -19.4499   -6.6433  -35.8105 C   0  0  0  0  0  0
  -19.4907   -8.0897  -36.2852 C   0  0  0  0  0  0
  -20.7144   -8.7498  -36.4085 C   0  0  0  0  0  0
  -20.7513  -10.0637  -36.8660 C   0  0  0  0  0  0
  -19.5617  -10.7116  -37.1967 C   0  0  0  0  0  0
  -18.3364  -10.0594  -37.0696 C   0  0  0  0  0  0
  -18.3005   -8.7461  -36.6101 C   0  0  0  0  0  0
  -21.2961   -8.2005  -31.0633 C   0  0  0  0  0  0
  -21.8680   -8.6359  -29.6982 C   0  0  0  0  0  0
  -20.9677   -9.4878  -31.8549 C   0  0  0  0  0  0
  -21.6913   -4.9304  -27.6356 C   0  0  0  0  0  0
  -21.8609   -6.1057  -27.3012 O   0  0  0  0  0  0
  -21.1306   -4.0127  -26.8249 N   0  0  0  0  0  0
  -20.5992   -4.3289  -25.4881 C   0  0  2  0  0  0
  -21.1593   -3.3999  -24.3739 C   0  0  0  0  0  0
  -22.3416   -4.0360  -23.5765 C   0  0  1  0  0  0
  -22.7171   -3.2949  -22.2972 C   0  0  0  0  0  0
  -23.8967   -2.4241  -22.6871 C   0  0  0  0  0  0
  -24.4575   -3.1420  -23.8150 N   0  0  0  0  0  0
  -23.6385   -4.0270  -24.4025 C   0  0  0  0  0  0
  -23.8969   -4.7299  -25.3734 O   0  0  0  0  0  0
  -19.0789   -4.2381  -25.6419 C   0  0  0  0  0  0
  -18.5510   -3.1481  -25.8694 O   0  0  0  0  0  0
  -18.2431   -5.4388  -25.4935 C   0  0  0  0  0  0
  -16.9413   -5.4402  -25.3526 N   0  0  0  0  0  0
  -16.4470   -6.6998  -25.2024 C   0  0  0  0  0  0
  -15.0959   -7.0191  -25.0253 C   0  0  0  0  0  0
  -14.7425   -8.3566  -24.8432 C   0  0  0  0  0  0
  -15.7028   -9.3677  -24.8522 C   0  0  0  0  0  0
  -17.0531   -9.0815  -25.0517 C   0  0  0  0  0  0
  -17.4119   -7.7390  -25.2269 C   0  0  0  0  0  0
  -18.9847   -7.0346  -25.5099 S   0  0  0  0  0  0
  -21.1915   -0.7590  -30.4290 H   0  0  0  0  0  0
  -21.1091   -1.2385  -32.1160 H   0  0  0  0  0  0
  -22.5774   -0.5368  -31.4737 H   0  0  0  0  0  0
  -21.7695   -3.3149  -31.5926 H   0  0  0  0  0  0
  -24.0072   -3.7382  -31.5511 H   0  0  0  0  0  0
  -24.2968   -2.7730  -30.1078 H   0  0  0  0  0  0
  -24.2026   -2.0018  -31.6797 H   0  0  0  0  0  0
  -22.2005   -2.3622  -28.7411 H   0  0  0  0  0  0
  -20.6952   -2.9253  -29.3909 H   0  0  0  0  0  0
  -23.2226   -4.6005  -29.0416 H   0  0  0  0  0  0
  -22.3713   -6.1207  -30.3898 H   0  0  0  0  0  0
  -19.3472   -7.6869  -30.3470 H   0  0  0  0  0  0
  -18.3580   -6.6981  -32.1904 H   0  0  0  0  0  0
  -18.6961   -6.1275  -36.4058 H   0  0  0  0  0  0
  -20.3977   -6.1396  -36.0138 H   0  0  0  0  0  0
  -21.6346   -8.2418  -36.1614 H   0  0  0  0  0  0
  -21.6968  -10.5750  -36.9639 H   0  0  0  0  0  0
  -19.5919  -11.7325  -37.5519 H   0  0  0  0  0  0
  -17.4203  -10.5712  -37.3265 H   0  0  0  0  0  0
  -17.3507   -8.2381  -36.5111 H   0  0  0  0  0  0
  -22.1227   -7.7197  -31.5819 H   0  0  0  0  0  0
  -22.6517   -9.3853  -29.8175 H   0  0  0  0  0  0
  -21.0949   -9.0815  -29.0769 H   0  0  0  0  0  0
  -22.3183   -7.8207  -29.1390 H   0  0  0  0  0  0
  -21.8077  -10.1823  -31.8504 H   0  0  0  0  0  0
  -20.7416   -9.2901  -32.9007 H   0  0  0  0  0  0
  -20.1101  -10.0061  -31.4235 H   0  0  0  0  0  0
  -21.0383   -3.0514  -27.1328 H   0  0  0  0  0  0
  -20.8932   -5.3350  -25.1967 H   0  0  0  0  0  0
  -21.4398   -2.4317  -24.7986 H   0  0  0  0  0  0
  -20.3688   -3.1768  -23.6539 H   0  0  0  0  0  0
  -22.1126   -5.0696  -23.3058 H   0  0  0  0  0  0
  -21.9008   -2.7439  -21.8363 H   0  0  0  0  0  0
  -23.0559   -4.0166  -21.5504 H   0  0  0  0  0  0
  -23.6089   -1.4223  -23.0003 H   0  0  0  0  0  0
  -24.6259   -2.3493  -21.8793 H   0  0  0  0  0  0
  -25.3656   -2.9233  -24.2033 H   0  0  0  0  0  0
  -14.3332   -6.2550  -25.0220 H   0  0  0  0  0  0
  -13.7007   -8.6151  -24.7197 H   0  0  0  0  0  0
  -15.3831  -10.3918  -24.7279 H   0  0  0  0  0  0
  -17.7996   -9.8638  -25.0783 H   0  0  0  0  0  0
  1  2  1  0  0  0
  1 46  1  0  0  0
  1 47  1  0  0  0
  1 48  1  0  0  0
  2  3  1  0  0  0
  2  4  1  0  0  0
  2 49  1  0  0  0
  3 50  1  0  0  0
  3 51  1  0  0  0
  3 52  1  0  0  0
  4  5  1  0  0  0
  4 53  1  0  0  0
  4 54  1  0  0  0
  5  6  1  0  0  0
  5 24  1  0  0  0
  5 55  1  0  0  0
  6  7  1  0  0  0
  6 56  1  0  0  0
  7  8  2  0  0  0
  7  9  1  0  0  0
  9 10  1  0  0  0
  9 21  1  0  0  0
  9 57  1  0  0  0
 10 11  1  0  0  0
 10 58  1  0  0  0
 11 12  2  0  0  0
 11 13  1  0  0  0
 13 14  1  0  0  0
 14 15  1  0  0  0
 14 59  1  0  0  0
 14 60  1  0  0  0
 15 20  1  0  0  0
 15 16  2  0  0  0
 16 17  1  0  0  0
 16 61  1  0  0  0
 17 18  2  0  0  0
 17 62  1  0  0  0
 18 19  1  0  0  0
 18 63  1  0  0  0
 19 20  2  0  0  0
 19 64  1  0  0  0
 20 65  1  0  0  0
 21 22  1  0  0  0
 21 23  1  0  0  0
 21 66  1  0  0  0
 22 67  1  0  0  0
 22 68  1  0  0  0
 22 69  1  0  0  0
 23 70  1  0  0  0
 23 71  1  0  0  0
 23 72  1  0  0  0
 24 25  2  0  0  0
 24 26  1  0  0  0
 26 27  1  0  0  0
 26 73  1  0  0  0
 27 28  1  0  0  0
 27 35  1  0  0  0
 27 74  1  0  0  0
 28 29  1  0  0  0
 28 75  1  0  0  0
 28 76  1  0  0  0
 29 33  1  0  0  0
 29 30  1  0  0  0
 29 77  1  0  0  0
 30 31  1  0  0  0
 30 78  1  0  0  0
 30 79  1  0  0  0
 31 32  1  0  0  0
 31 80  1  0  0  0
 31 81  1  0  0  0
 32 33  1  0  0  0
 32 82  1  0  0  0
 33 34  2  0  0  0
 35 36  2  0  0  0
 35 37  1  0  0  0
 37 45  1  0  0  0
 37 38  2  0  0  0
 38 39  1  0  0  0
 39 44  1  0  0  0
 39 40  2  0  0  0
 40 41  1  0  0  0
 40 83  1  0  0  0
 41 42  2  0  0  0
 41 84  1  0  0  0
 42 43  1  0  0  0
 42 85  1  0  0  0
 43 44  2  0  0  0
 43 86  1  0  0  0
 44 45  1  0  0  0
M  END
$$$$
