@<TRIPOS>MOLECULE
*****
 86 89 0 0 0
SMALL
GASTEIGER
****
Schrodinger Suite 2019-4.
@<TRIPOS>ATOM
      1 C         -21.7595   -1.2176  -31.2403 C.3     1  UNL1       -0.0626
      2 C         -22.2437   -2.6406  -30.8800 C.3     1  UNL1       -0.0446
      3 C         -23.7694   -2.7905  -31.0625 C.3     1  UNL1       -0.0626
      4 C         -21.7725   -3.0585  -29.4641 C.3     1  UNL1       -0.0236
      5 C         -22.1357   -4.5136  -29.0548 C.3     1  UNL1        0.0996
      6 N         -21.6551   -5.5111  -30.0243 N.am    1  UNL1       -0.3025
      7 C         -20.3710   -5.8506  -30.2575 C.2     1  UNL1        0.2343
      8 O         -19.4148   -5.1786  -29.8658 O.2     1  UNL1       -0.2738
      9 C         -20.0738   -7.1905  -30.9929 C.3     1  UNL1        0.1048
     10 N         -19.3373   -6.9428  -32.2510 N.am    1  UNL1       -0.2696
     11 C         -19.9851   -6.7491  -33.4640 C.2     1  UNL1        0.4012
     12 O         -21.1970   -6.7363  -33.6485 O.2     1  UNL1       -0.2265
     13 O         -19.0856   -6.5725  -34.4330 O.3     1  UNL1       -0.4456
     14 C         -19.4499   -6.6433  -35.8105 C.3     1  UNL1        0.1191
     15 C         -19.4907   -8.0897  -36.2852 C.ar    1  UNL1       -0.0103
     16 C         -20.7144   -8.7498  -36.4085 C.ar    1  UNL1       -0.0554
     17 C         -20.7513  -10.0637  -36.8660 C.ar    1  UNL1       -0.0614
     18 C         -19.5617  -10.7116  -37.1967 C.ar    1  UNL1       -0.0617
     19 C         -18.3364  -10.0594  -37.0696 C.ar    1  UNL1       -0.0614
     20 C         -18.3005   -8.7461  -36.6101 C.ar    1  UNL1       -0.0554
     21 C         -21.2961   -8.2005  -31.0633 C.3     1  UNL1       -0.0196
     22 C         -21.8680   -8.6359  -29.6982 C.3     1  UNL1       -0.0605
     23 C         -20.9677   -9.4878  -31.8549 C.3     1  UNL1       -0.0605
     24 C         -21.6913   -4.9304  -27.6356 C.2     1  UNL1        0.2339
     25 O         -21.8609   -6.1057  -27.3012 O.2     1  UNL1       -0.2738
     26 N         -21.1306   -4.0127  -26.8249 N.am    1  UNL1       -0.3037
     27 C         -20.5992   -4.3289  -25.4881 C.3     1  UNL1        0.0888
     28 C         -21.1593   -3.3999  -24.3739 C.3     1  UNL1       -0.0160
     29 C         -22.3416   -4.0360  -23.5765 C.3     1  UNL1        0.0390
     30 C         -22.7171   -3.2949  -22.2972 C.3     1  UNL1       -0.0262
     31 C         -23.8967   -2.4241  -22.6871 C.3     1  UNL1        0.0123
     32 N         -24.4575   -3.1420  -23.8150 N.am    1  UNL1       -0.3151
     33 C         -23.6385   -4.0270  -24.4025 C.2     1  UNL1        0.2162
     34 O         -23.8969   -4.7299  -25.3734 O.2     1  UNL1       -0.2755
     35 C         -19.0789   -4.2381  -25.6419 C.2     1  UNL1        0.2079
     36 O         -18.5510   -3.1481  -25.8694 O.2     1  UNL1       -0.2879
     37 C         -18.2431   -5.4388  -25.4935 C.ar    1  UNL1        0.1465
     38 N         -16.9413   -5.4402  -25.3526 N.ar    1  UNL1       -0.2360
     39 C         -16.4470   -6.6998  -25.2024 C.ar    1  UNL1        0.0790
     40 C         -15.0959   -7.0191  -25.0253 C.ar    1  UNL1       -0.0352
     41 C         -14.7425   -8.3566  -24.8432 C.ar    1  UNL1       -0.0597
     42 C         -15.7028   -9.3677  -24.8522 C.ar    1  UNL1       -0.0606
     43 C         -17.0531   -9.0815  -25.0517 C.ar    1  UNL1       -0.0459
     44 C         -17.4119   -7.7390  -25.2269 C.ar    1  UNL1        0.0396
     45 S         -18.9847   -7.0346  -25.5099 S.2     1  UNL1       -0.0643
     46 H         -21.1915   -0.7590  -30.4290 H       1  UNL1        0.0232
     47 H         -21.1091   -1.2385  -32.1160 H       1  UNL1        0.0232
     48 H         -22.5774   -0.5368  -31.4737 H       1  UNL1        0.0232
     49 H         -21.7695   -3.3149  -31.5926 H       1  UNL1        0.0296
     50 H         -24.0072   -3.7382  -31.5511 H       1  UNL1        0.0232
     51 H         -24.2968   -2.7730  -30.1078 H       1  UNL1        0.0232
     52 H         -24.2026   -2.0018  -31.6797 H       1  UNL1        0.0232
     53 H         -22.2005   -2.3622  -28.7411 H       1  UNL1        0.0290
     54 H         -20.6952   -2.9253  -29.3909 H       1  UNL1        0.0290
     55 H         -23.2226   -4.6005  -29.0416 H       1  UNL1        0.0594
     56 H         -22.3713   -6.1207  -30.3898 H       1  UNL1        0.1495
     57 H         -19.3472   -7.6869  -30.3470 H       1  UNL1        0.0598
     58 H         -18.3580   -6.6981  -32.1904 H       1  UNL1        0.1528
     59 H         -18.6961   -6.1275  -36.4058 H       1  UNL1        0.0749
     60 H         -20.3977   -6.1396  -36.0138 H       1  UNL1        0.0749
     61 H         -21.6346   -8.2418  -36.1614 H       1  UNL1        0.0621
     62 H         -21.6968  -10.5750  -36.9639 H       1  UNL1        0.0618
     63 H         -19.5919  -11.7325  -37.5519 H       1  UNL1        0.0618
     64 H         -17.4203  -10.5712  -37.3265 H       1  UNL1        0.0618
     65 H         -17.3507   -8.2381  -36.5111 H       1  UNL1        0.0621
     66 H         -22.1227   -7.7197  -31.5819 H       1  UNL1        0.0318
     67 H         -22.6517   -9.3853  -29.8175 H       1  UNL1        0.0233
     68 H         -21.0949   -9.0815  -29.0769 H       1  UNL1        0.0233
     69 H         -22.3183   -7.8207  -29.1390 H       1  UNL1        0.0233
     70 H         -21.8077  -10.1823  -31.8504 H       1  UNL1        0.0233
     71 H         -20.7416   -9.2901  -32.9007 H       1  UNL1        0.0233
     72 H         -20.1101  -10.0061  -31.4235 H       1  UNL1        0.0233
     73 H         -21.0383   -3.0514  -27.1328 H       1  UNL1        0.1495
     74 H         -20.8932   -5.3350  -25.1967 H       1  UNL1        0.0582
     75 H         -21.4398   -2.4317  -24.7986 H       1  UNL1        0.0295
     76 H         -20.3688   -3.1768  -23.6539 H       1  UNL1        0.0295
     77 H         -22.1126   -5.0696  -23.3058 H       1  UNL1        0.0395
     78 H         -21.9008   -2.7439  -21.8363 H       1  UNL1        0.0288
     79 H         -23.0559   -4.0166  -21.5504 H       1  UNL1        0.0288
     80 H         -23.6089   -1.4223  -23.0003 H       1  UNL1        0.0462
     81 H         -24.6259   -2.3493  -21.8793 H       1  UNL1        0.0462
     82 H         -25.3656   -2.9233  -24.2033 H       1  UNL1        0.1487
     83 H         -14.3332   -6.2550  -25.0220 H       1  UNL1        0.0639
     84 H         -13.7007   -8.6151  -24.7197 H       1  UNL1        0.0618
     85 H         -15.3831  -10.3918  -24.7279 H       1  UNL1        0.0618
     86 H         -17.7996   -9.8638  -25.0783 H       1  UNL1        0.0629
@<TRIPOS>BOND
     1     1     2    1
     2     1    46    1
     3     1    47    1
     4     1    48    1
     5     2     3    1
     6     2     4    1
     7     2    49    1
     8     3    50    1
     9     3    51    1
    10     3    52    1
    11     4     5    1
    12     4    53    1
    13     4    54    1
    14     5     6    1
    15     5    24    1
    16     5    55    1
    17     6     7   am
    18     6    56    1
    19     7     8    2
    20     7     9    1
    21     9    10    1
    22     9    21    1
    23     9    57    1
    24    10    11   am
    25    10    58    1
    26    11    12    2
    27    11    13    1
    28    13    14    1
    29    14    15    1
    30    14    59    1
    31    14    60    1
    32    15    20   ar
    33    15    16   ar
    34    16    17   ar
    35    16    61    1
    36    17    18   ar
    37    17    62    1
    38    18    19   ar
    39    18    63    1
    40    19    20   ar
    41    19    64    1
    42    20    65    1
    43    21    22    1
    44    21    23    1
    45    21    66    1
    46    22    67    1
    47    22    68    1
    48    22    69    1
    49    23    70    1
    50    23    71    1
    51    23    72    1
    52    24    25    2
    53    24    26   am
    54    26    27    1
    55    26    73    1
    56    27    28    1
    57    27    35    1
    58    27    74    1
    59    28    29    1
    60    28    75    1
    61    28    76    1
    62    29    33    1
    63    29    30    1
    64    29    77    1
    65    30    31    1
    66    30    78    1
    67    30    79    1
    68    31    32    1
    69    31    80    1
    70    31    81    1
    71    32    33   am
    72    32    82    1
    73    33    34    2
    74    35    36    2
    75    35    37    1
    76    37    45   ar
    77    37    38   ar
    78    38    39   ar
    79    39    44   ar
    80    39    40   ar
    81    40    41   ar
    82    40    83    1
    83    41    42   ar
    84    41    84    1
    85    42    43   ar
    86    42    85    1
    87    43    44   ar
    88    43    86    1
    89    44    45   ar
