@<TRIPOS>MOLECULE
/home/lixiaoshuang.lxs/med/data/m_pro/PDB_BA/6wtk/6wtk_ligand.pdb
 29 30 0 0 0
SMALL
GASTEIGER

@<TRIPOS>ATOM
      1  C7       -13.7350  -10.3210   -0.0820 C.3   401  UED401      0.2368
      2  O8       -14.6010  -11.2670   -0.6580 O.3   401  UED401     -0.4285
      3  C9       -14.8900  -12.4220    0.1050 C.2   401  UED401      0.4218
      4  O10      -14.7680  -12.4420    1.2920 O.2   401  UED401     -0.2245
      5  C1       -12.2460  -10.6330   -0.3630 C.ar  401  UED401      0.0213
      6  C2       -11.8530  -11.7740   -1.0680 C.ar  401  UED401     -0.0007
      7  C3       -10.4980  -12.0170   -1.2940 C.ar  401  UED401     -0.0002
      8  C4        -9.5270  -11.1300   -0.8250 C.ar  401  UED401     -0.0000
      9  C5        -9.9080   -9.9920   -0.1230 C.ar  401  UED401     -0.0002
     10  C6       -11.2630   -9.7540    0.1060 C.ar  401  UED401     -0.0007
     11  N11      -15.3630  -13.6020   -0.6020 N.am  401  UED401     -0.1611
     12  C12      -15.5400  -14.8690    0.0640 C.3   401  UED401      0.1761
     13  C17      -14.1640  -15.3610    0.4930 C.2   401  UED401      0.2614
     14  O18      -13.2960  -15.3700   -0.3050 O.2   401  UED401     -0.2715
     15  C13      -16.1240  -15.8420   -0.9510 C.3   401  UED401      0.0312
     16  C14      -17.6390  -15.6470   -1.0580 C.3   401  UED401      0.0022
     17  C15      -18.2770  -15.9560    0.2890 C.3   401  UED401      0.0001
     18  C16      -18.2490  -16.5810   -2.1150 C.3   401  UED401      0.0001
     19  N19      -13.8980  -15.8110    1.8530 N.am  401  UED401     -0.2030
     20  C20      -12.5630  -16.2820    2.1970 C.3   401  UED401      0.1287
     21  C21      -12.6600  -17.7540    2.6300 C.3   401  UED401      0.2036
     22  O22      -11.4120  -18.3920    2.6060 O.3   401  UED401     -0.2185
     23  C24      -12.0280  -15.4490    3.3560 C.3   401  UED401      0.0335
     24  C25      -11.6720  -14.0450    2.8420 C.3   401  UED401      0.0818
     25  C26      -10.5150  -14.1410    1.8410 C.3   401  UED401      0.0326
     26  C27       -9.5530  -12.9870    2.2230 C.3   401  UED401      0.1156
     27  N28       -9.9210  -12.5890    3.5550 N.am  401  UED401     -0.2054
     28  C29      -11.2100  -13.2310    3.9490 C.2   401  UED401      0.2410
     29  O30      -11.7820  -13.0960    4.9950 O.2   401  UED401     -0.2734
@<TRIPOS>BOND
     1    18    16    1
     2     7     6   ar
     3     7     8   ar
     4     6     5   ar
     5    16    15    1
     6    16    17    1
     7    15    12    1
     8     8     9   ar
     9     2     1    1
    10     2     3    1
    11    11    12    1
    12    11     3   am
    13     5     1    1
    14     5    10   ar
    15    14    13    2
    16     9    10   ar
    17    12    13    1
    18     3     4    2
    19    13    19   am
    20    25    26    1
    21    25    24    1
    22    19    20    1
    23    20    21    1
    24    20    23    1
    25    26    27    1
    26    22    21    1
    27    24    23    1
    28    24    28    1
    29    27    28   am
    30    28    29    2
