@<TRIPOS>MOLECULE
/home/lixiaoshuang.lxs/med/data/m_pro/PDB_BA/3vb4/3vb4_ligand.pdb
 36 35 0 0 0
SMALL
GASTEIGER

@<TRIPOS>ATOM
      1  O1         0.0720  -20.5130   36.9710 O.2     1  BOC1       -0.2246
      2  C         -1.1260  -20.7210   37.1250 C.2     1  BOC1        0.4213
      3  O2        -1.6020  -22.0700   37.3740 O.3     1  BOC1       -0.4408
      4  CT        -0.8350  -22.9940   38.1510 C.3     1  BOC1        0.1379
      5  C1        -1.7800  -24.0870   38.6390 C.3     1  BOC1        0.0437
      6  C2         0.2640  -23.5910   37.2710 C.3     1  BOC1        0.0437
      7  C3        -0.2580  -22.2750   39.3690 C.3     1  BOC1        0.0437
      8  N         -2.0390  -19.7590   37.0600 N.am    2  ALA2       -0.1611
      9  CA        -1.6590  -18.3800   36.8470 C.3     2  ALA2        0.1762
     10  C         -0.9550  -17.8940   38.0800 C.2     2  ALA2        0.2617
     11  O         -1.3250  -18.2420   39.1950 O.2     2  ALA2       -0.2715
     12  CB        -2.9130  -17.5460   36.6000 C.3     2  ALA2        0.0335
     13  N          0.0700  -17.0790   37.8830 N.am    3  VAL3       -0.1963
     14  CA         0.8400  -16.5310   38.9830 C.3     3  VAL3        0.1727
     15  C          0.6120  -15.0480   39.1020 C.2     3  VAL3        0.2616
     16  O          0.7530  -14.3260   38.1250 O.2     3  VAL3       -0.2715
     17  CB         2.2720  -16.8270   38.5360 C.3     3  VAL3        0.0290
     18  CG1        3.3200  -15.9990   39.2770 C.3     3  VAL3        0.0023
     19  CG2        2.5540  -18.3230   38.6570 C.3     3  VAL3        0.0023
     20  N          0.2450  -14.5830   40.2950 N.am    4  LEU4       -0.1963
     21  CA         0.0160  -13.1660   40.5220 C.3     4  LEU4        0.1728
     22  C          1.3540  -12.4920   40.4060 C.2     4  LEU4        0.2615
     23  O          2.2180  -12.6720   41.2550 O.2     4  LEU4       -0.2715
     24  CB        -0.5050  -13.0400   41.9550 C.3     4  LEU4        0.0311
     25  CG        -1.8920  -13.6580   42.1600 C.3     4  LEU4        0.0022
     26  CD1       -2.4690  -13.3260   43.5370 C.3     4  LEU4        0.0001
     27  CD2       -2.8560  -13.2600   41.0460 C.3     4  LEU4        0.0001
     28  C          2.9050   -9.5920   39.4260 C.2     5  0JU5        0.1171
     29  NF         3.9240   -9.1710   40.0340 N.2     5  0JU5       -0.1496
     30  CA         2.8560  -11.0650   39.1490 C.3     5  0JU5        0.1387
     31  N          1.5620  -11.7220   39.3430 N.am    5  0JU5       -0.1995
     32  CB         3.1770  -11.2950   37.6770 C.3     5  0JU5        0.0375
     33  CG         4.6660  -11.4870   37.4450 C.3     5  0JU5        0.0907
     34  CD         4.8380  -11.8610   35.9930 C.2     5  0JU5        0.2608
     35  OE         4.0710  -11.4280   35.1400 O.2     5  0JU5       -0.2717
     36  NE         5.8410  -12.6720   35.7180 N.am    5  0JU5       -0.0878
@<TRIPOS>BOND
     1    35    34    2
     2    36    34   am
     3    34    33    1
     4    12     9    1
     5     9     8    1
     6     9    10    1
     7     1     2    2
     8     8     2   am
     9     2     3    1
    10     6     4    1
    11     3     4    1
    12    33    32    1
    13    32    30    1
    14    13    10   am
    15    13    14    1
    16    10    11    2
    17    16    15    2
    18     4     5    1
    19     4     7    1
    20    17    19    1
    21    17    14    1
    22    17    18    1
    23    14    15    1
    24    15    20   am
    25    30    31    1
    26    30    28    1
    27    31    22   am
    28    28    29    2
    29    20    21    1
    30    22    21    1
    31    22    23    2
    32    21    24    1
    33    27    25    1
    34    24    25    1
    35    25    26    1
