@<TRIPOS>MOLECULE
*****
 88 91 0 0 0
SMALL
GASTEIGER
****
Schrodinger Suite 2019-4.
@<TRIPOS>ATOM
      1 C         -21.8617   -7.7004  -27.1028 C.3     1  UNL1       -0.0626
      2 C         -23.1881   -7.0256  -26.7039 C.3     1  UNL1       -0.0446
      3 C         -24.3043   -8.0631  -26.5412 C.3     1  UNL1       -0.0626
      4 C         -23.6302   -5.9434  -27.7117 C.3     1  UNL1       -0.0236
      5 C         -22.5906   -4.8486  -28.0507 C.3     1  UNL1        0.0996
      6 N         -23.0069   -4.0350  -29.1935 N.am    1  UNL1       -0.3025
      7 C         -24.1780   -3.3970  -29.3643 C.2     1  UNL1        0.2342
      8 O         -25.0221   -3.3147  -28.4761 O.2     1  UNL1       -0.2738
      9 C         -24.4127   -2.7364  -30.7326 C.3     1  UNL1        0.1018
     10 N         -23.1583   -2.2042  -31.2668 N.am    1  UNL1       -0.3010
     11 C         -22.6297   -0.9845  -31.0890 C.2     1  UNL1        0.2513
     12 O         -23.1544   -0.0511  -30.4899 O.2     1  UNL1       -0.2721
     13 C         -21.2195   -0.8425  -31.5899 C.3     1  UNL1        0.1652
     14 O         -20.4306   -1.1942  -30.4775 O.3     1  UNL1       -0.4828
     15 C         -20.2443   -2.5198  -30.1634 C.ar    1  UNL1        0.1216
     16 C         -19.9786   -2.7794  -28.8141 C.ar    1  UNL1       -0.0135
     17 C         -19.3490   -3.9684  -28.4258 C.ar    1  UNL1        0.0190
     18 C         -19.1127   -4.9898  -29.3612 C.ar    1  UNL1        0.2734
     19 C         -19.5293   -4.7968  -30.6974 C.ar    1  UNL1        0.0190
     20 C         -20.0819   -3.5635  -31.1041 C.ar    1  UNL1       -0.0135
     21 N         -18.4340   -6.2193  -28.9286 N.pl3   1  UNL1        0.0796
     22 O         -17.8747   -6.2049  -27.8402 O.co2   1  UNL1       -0.5760
     23 O         -18.4544   -7.1929  -29.6704 O.2     1  UNL1        0.0414
     24 C         -25.6104   -1.7537  -30.8505 C.3     1  UNL1       -0.0197
     25 C         -26.9898   -2.3451  -30.5664 C.3     1  UNL1       -0.0605
     26 C         -25.6923   -1.1107  -32.2166 C.3     1  UNL1       -0.0605
     27 C         -22.0852   -4.0179  -26.8574 C.2     1  UNL1        0.2339
     28 O         -22.3413   -2.8177  -26.7744 O.2     1  UNL1       -0.2738
     29 N         -21.3423   -4.6896  -25.9589 N.am    1  UNL1       -0.3037
     30 C         -20.8153   -4.2778  -24.6567 C.3     1  UNL1        0.0888
     31 C         -21.7495   -3.3437  -23.8895 C.3     1  UNL1       -0.0160
     32 C         -23.2032   -3.8313  -23.7493 C.3     1  UNL1        0.0390
     33 C         -23.4287   -4.9575  -22.7381 C.3     1  UNL1       -0.0262
     34 C         -24.5472   -4.4677  -21.8074 C.3     1  UNL1        0.0123
     35 N         -24.7979   -3.0973  -22.2022 N.am    1  UNL1       -0.3151
     36 C         -24.1022   -2.7153  -23.2644 C.2     1  UNL1        0.2162
     37 O         -24.1621   -1.6182  -23.8092 O.2     1  UNL1       -0.2755
     38 C         -19.3492   -3.7931  -24.7426 C.2     1  UNL1        0.2079
     39 O         -19.0411   -2.6028  -24.7167 O.2     1  UNL1       -0.2879
     40 C         -18.2708   -4.8149  -24.8675 C.ar    1  UNL1        0.1465
     41 N         -16.9616   -4.5608  -25.0088 N.ar    1  UNL1       -0.2360
     42 C         -16.2528   -5.7592  -25.0007 C.ar    1  UNL1        0.0790
     43 C         -14.8584   -5.9249  -25.0871 C.ar    1  UNL1       -0.0352
     44 C         -14.2643   -7.1949  -24.9714 C.ar    1  UNL1       -0.0597
     45 C         -15.0585   -8.3455  -24.8418 C.ar    1  UNL1       -0.0606
     46 C         -16.4553   -8.2201  -24.8102 C.ar    1  UNL1       -0.0459
     47 C         -17.0346   -6.9421  -24.8716 C.ar    1  UNL1        0.0396
     48 S         -18.7267   -6.5249  -24.8140 S.2     1  UNL1       -0.0643
     49 H         -21.0051   -7.0325  -27.0417 H       1  UNL1        0.0232
     50 H         -21.6358   -8.5450  -26.4520 H       1  UNL1        0.0232
     51 H         -21.9060   -8.0587  -28.1307 H       1  UNL1        0.0232
     52 H         -23.0605   -6.5749  -25.7206 H       1  UNL1        0.0296
     53 H         -25.2290   -7.5938  -26.2039 H       1  UNL1        0.0232
     54 H         -24.5166   -8.5710  -27.4829 H       1  UNL1        0.0232
     55 H         -24.0344   -8.8196  -25.8037 H       1  UNL1        0.0232
     56 H         -24.5441   -5.4893  -27.3317 H       1  UNL1        0.0290
     57 H         -23.9163   -6.4387  -28.6416 H       1  UNL1        0.0290
     58 H         -21.7181   -5.3705  -28.4388 H       1  UNL1        0.0594
     59 H         -22.3559   -3.9967  -29.9630 H       1  UNL1        0.1495
     60 H         -24.6395   -3.5725  -31.3964 H       1  UNL1        0.0597
     61 H         -22.5959   -2.8650  -31.7813 H       1  UNL1        0.1496
     62 H         -21.0327    0.1993  -31.8516 H       1  UNL1        0.0795
     63 H         -21.0384   -1.4309  -32.4887 H       1  UNL1        0.0795
     64 H         -20.1697   -2.0122  -28.0816 H       1  UNL1        0.0656
     65 H         -19.0477   -4.0836  -27.4002 H       1  UNL1        0.0686
     66 H         -19.3636   -5.5698  -31.4314 H       1  UNL1        0.0686
     67 H         -20.2993   -3.4150  -32.1455 H       1  UNL1        0.0656
     68 H         -25.4334   -0.9622  -30.1364 H       1  UNL1        0.0318
     69 H         -27.7901   -1.6668  -30.8610 H       1  UNL1        0.0233
     70 H         -27.1384   -3.2685  -31.1193 H       1  UNL1        0.0233
     71 H         -27.1306   -2.5231  -29.5068 H       1  UNL1        0.0233
     72 H         -25.6876   -0.0326  -32.1121 H       1  UNL1        0.0233
     73 H         -24.8468   -1.4070  -32.8165 H       1  UNL1        0.0233
     74 H         -26.5816   -1.3967  -32.7797 H       1  UNL1        0.0233
     75 H         -21.2054   -5.6671  -26.1707 H       1  UNL1        0.1495
     76 H         -20.8400   -5.1815  -24.0510 H       1  UNL1        0.0582
     77 H         -21.7642   -2.4166  -24.4361 H       1  UNL1        0.0295
     78 H         -21.3330   -3.1199  -22.9058 H       1  UNL1        0.0295
     79 H         -23.6224   -4.1418  -24.7025 H       1  UNL1        0.0395
     80 H         -22.5227   -5.1847  -22.1858 H       1  UNL1        0.0288
     81 H         -23.7222   -5.8793  -23.2432 H       1  UNL1        0.0288
     82 H         -24.2589   -4.5245  -20.7579 H       1  UNL1        0.0462
     83 H         -25.4581   -5.0512  -21.9442 H       1  UNL1        0.0462
     84 H         -25.4420   -2.5007  -21.7036 H       1  UNL1        0.1487
     85 H         -14.2441   -5.0597  -25.2290 H       1  UNL1        0.0639
     86 H         -13.1888   -7.2880  -24.9814 H       1  UNL1        0.0618
     87 H         -14.5932   -9.3179  -24.7776 H       1  UNL1        0.0618
     88 H         -17.0804   -9.0947  -24.7175 H       1  UNL1        0.0629
@<TRIPOS>BOND
     1     1     2    1
     2     1    49    1
     3     1    50    1
     4     1    51    1
     5     2     3    1
     6     2     4    1
     7     2    52    1
     8     3    53    1
     9     3    54    1
    10     3    55    1
    11     4     5    1
    12     4    56    1
    13     4    57    1
    14     5     6    1
    15     5    27    1
    16     5    58    1
    17     6     7   am
    18     6    59    1
    19     7     8    2
    20     7     9    1
    21     9    10    1
    22     9    24    1
    23     9    60    1
    24    10    11   am
    25    10    61    1
    26    11    12    2
    27    11    13    1
    28    13    14    1
    29    13    62    1
    30    13    63    1
    31    14    15    1
    32    15    20   ar
    33    15    16   ar
    34    16    17   ar
    35    16    64    1
    36    17    18   ar
    37    17    65    1
    38    18    19   ar
    39    18    21    1
    40    19    20   ar
    41    19    66    1
    42    20    67    1
    43    21    22    1
    44    21    23    2
    45    24    25    1
    46    24    26    1
    47    24    68    1
    48    25    69    1
    49    25    70    1
    50    25    71    1
    51    26    72    1
    52    26    73    1
    53    26    74    1
    54    27    28    2
    55    27    29   am
    56    29    30    1
    57    29    75    1
    58    30    31    1
    59    30    38    1
    60    30    76    1
    61    31    32    1
    62    31    77    1
    63    31    78    1
    64    32    36    1
    65    32    33    1
    66    32    79    1
    67    33    34    1
    68    33    80    1
    69    33    81    1
    70    34    35    1
    71    34    82    1
    72    34    83    1
    73    35    36   am
    74    35    84    1
    75    36    37    2
    76    38    39    2
    77    38    40    1
    78    40    48   ar
    79    40    41   ar
    80    41    42   ar
    81    42    47   ar
    82    42    43   ar
    83    43    44   ar
    84    43    85    1
    85    44    45   ar
    86    44    86    1
    87    45    46   ar
    88    45    87    1
    89    46    47   ar
    90    46    88    1
    91    47    48   ar
