@<TRIPOS>MOLECULE
*****
 80 81 0 0 0
SMALL
GASTEIGER
****
Schrodinger Suite 2019-4.
@<TRIPOS>ATOM
      1 C         -24.8195   -4.7453  -20.5399 C.3     1  UNL1       -0.0306
      2 C         -24.5743   -3.3653  -21.1550 C.3     1  UNL1        0.0900
      3 O         -23.9000   -3.5545  -22.3779 O.3     1  UNL1       -0.4618
      4 C         -22.6723   -3.0868  -22.5690 C.2     1  UNL1        0.3317
      5 O         -22.0967   -2.2802  -21.8400 O.2     1  UNL1       -0.2456
      6 C         -22.0863   -3.7258  -23.7443 C.2     1  UNL1        0.0203
      7 C         -20.8628   -3.4169  -24.1918 C.2     1  UNL1       -0.0572
      8 C         -20.2071   -4.1218  -25.3540 C.3     1  UNL1        0.0427
      9 C         -18.6768   -4.0190  -25.2578 C.3     1  UNL1       -0.0197
     10 C         -17.9535   -5.2859  -25.7416 C.3     1  UNL1        0.0389
     11 C         -18.3892   -6.5822  -25.0316 C.3     1  UNL1       -0.0262
     12 C         -17.1108   -7.3940  -24.8170 C.3     1  UNL1        0.0123
     13 N         -16.0589   -6.4088  -24.9144 N.am    1  UNL1       -0.3151
     14 C         -16.4677   -5.2505  -25.4219 C.2     1  UNL1        0.2162
     15 O         -15.7566   -4.2718  -25.6212 O.2     1  UNL1       -0.2755
     16 N         -20.6955   -3.6701  -26.6608 N.am    1  UNL1       -0.3075
     17 C         -21.5793   -4.3606  -27.4006 C.2     1  UNL1        0.2338
     18 O         -22.1782   -5.3483  -26.9706 O.2     1  UNL1       -0.2738
     19 C         -21.7953   -3.9245  -28.8625 C.3     1  UNL1        0.0996
     20 C         -23.1854   -3.2526  -28.9949 C.3     1  UNL1       -0.0236
     21 C         -23.6890   -2.9774  -30.4322 C.3     1  UNL1       -0.0446
     22 C         -22.6612   -2.2439  -31.3080 C.3     1  UNL1       -0.0626
     23 C         -24.9875   -2.1665  -30.4073 C.3     1  UNL1       -0.0626
     24 N         -21.7123   -5.1130  -29.7121 N.am    1  UNL1       -0.3025
     25 C         -20.5776   -5.7909  -29.9610 C.2     1  UNL1        0.2342
     26 O         -19.4685   -5.3635  -29.6369 O.2     1  UNL1       -0.2738
     27 C         -20.6746   -7.1731  -30.6422 C.3     1  UNL1        0.1020
     28 N         -19.8528   -7.1880  -31.8591 N.am    1  UNL1       -0.2984
     29 C         -20.1261   -6.5185  -32.9895 C.2     1  UNL1        0.2663
     30 O         -21.0305   -5.6867  -33.0914 O.2     1  UNL1       -0.2684
     31 C         -19.2494   -6.8254  -34.1607 C.ar    1  UNL1        0.1678
     32 N         -18.5636   -5.9534  -34.8782 N.ar    1  UNL1       -0.0734
     33 O         -18.1524   -6.6495  -36.0148 O.2     1  UNL1       -0.3592
     34 C         -18.4955   -7.9516  -35.8787 C.ar    1  UNL1        0.1350
     35 C         -18.0697   -8.8657  -36.9736 C.3     1  UNL1       -0.0037
     36 C         -19.1985   -8.1319  -34.7209 C.ar    1  UNL1        0.0125
     37 C         -22.0926   -7.7903  -30.8823 C.3     1  UNL1       -0.0197
     38 C         -23.0261   -7.8428  -29.6492 C.3     1  UNL1       -0.0605
     39 C         -21.9600   -9.2157  -31.4595 C.3     1  UNL1       -0.0605
     40 H         -25.3989   -4.6810  -19.6215 H       1  UNL1        0.0262
     41 H         -25.3791   -5.3778  -21.2294 H       1  UNL1        0.0262
     42 H         -23.8816   -5.2525  -20.3135 H       1  UNL1        0.0262
     43 H         -24.0141   -2.7336  -20.4670 H       1  UNL1        0.0695
     44 H         -25.5244   -2.8706  -21.3569 H       1  UNL1        0.0695
     45 H         -22.6669   -4.4835  -24.2509 H       1  UNL1        0.0686
     46 H         -20.2795   -2.6562  -23.6973 H       1  UNL1        0.0593
     47 H         -20.4931   -5.1637  -25.2097 H       1  UNL1        0.0543
     48 H         -18.3854   -3.8463  -24.2206 H       1  UNL1        0.0293
     49 H         -18.3299   -3.1462  -25.8112 H       1  UNL1        0.0293
     50 H         -18.0631   -5.3949  -26.8221 H       1  UNL1        0.0395
     51 H         -19.1259   -7.1421  -25.6092 H       1  UNL1        0.0288
     52 H         -18.8348   -6.3559  -24.0635 H       1  UNL1        0.0288
     53 H         -16.9746   -8.1334  -25.6081 H       1  UNL1        0.0462
     54 H         -17.1036   -7.9128  -23.8598 H       1  UNL1        0.0462
     55 H         -15.0988   -6.6064  -24.6612 H       1  UNL1        0.1487
     56 H         -20.2681   -2.8483  -27.0649 H       1  UNL1        0.1493
     57 H         -21.0167   -3.2300  -29.1679 H       1  UNL1        0.0594
     58 H         -23.1498   -2.3065  -28.4526 H       1  UNL1        0.0290
     59 H         -23.9387   -3.8573  -28.4863 H       1  UNL1        0.0290
     60 H         -23.9096   -3.9380  -30.9011 H       1  UNL1        0.0296
     61 H         -23.0720   -2.0236  -32.2938 H       1  UNL1        0.0232
     62 H         -22.3498   -1.2997  -30.8588 H       1  UNL1        0.0232
     63 H         -21.7712   -2.8521  -31.4685 H       1  UNL1        0.0232
     64 H         -25.4634   -2.1721  -31.3874 H       1  UNL1        0.0232
     65 H         -25.6882   -2.5595  -29.6740 H       1  UNL1        0.0232
     66 H         -24.7843   -1.1274  -30.1548 H       1  UNL1        0.0232
     67 H         -22.5851   -5.5201  -30.0143 H       1  UNL1        0.1495
     68 H         -20.1653   -7.8454  -29.9528 H       1  UNL1        0.0597
     69 H         -19.0574   -7.8106  -31.8629 H       1  UNL1        0.1498
     70 H         -18.9197   -9.4315  -37.3565 H       1  UNL1        0.0309
     71 H         -17.6256   -8.3117  -37.8012 H       1  UNL1        0.0309
     72 H         -17.3262   -9.5743  -36.6089 H       1  UNL1        0.0309
     73 H         -19.6509   -9.0445  -34.3637 H       1  UNL1        0.0676
     74 H         -22.6064   -7.1682  -31.6139 H       1  UNL1        0.0318
     75 H         -23.9860   -7.3742  -29.8707 H       1  UNL1        0.0233
     76 H         -23.2407   -8.8655  -29.3373 H       1  UNL1        0.0233
     77 H         -22.6142   -7.3435  -28.7751 H       1  UNL1        0.0233
     78 H         -22.9312   -9.6956  -31.5556 H       1  UNL1        0.0233
     79 H         -21.4963   -9.2200  -32.4450 H       1  UNL1        0.0233
     80 H         -21.3573   -9.8496  -30.8092 H       1  UNL1        0.0233
@<TRIPOS>BOND
     1     1     2    1
     2     1    40    1
     3     1    41    1
     4     1    42    1
     5     2     3    1
     6     2    43    1
     7     2    44    1
     8     3     4    1
     9     4     5    2
    10     4     6    1
    11     6     7    2
    12     6    45    1
    13     7     8    1
    14     7    46    1
    15     8     9    1
    16     8    16    1
    17     8    47    1
    18     9    10    1
    19     9    48    1
    20     9    49    1
    21    10    14    1
    22    10    11    1
    23    10    50    1
    24    11    12    1
    25    11    51    1
    26    11    52    1
    27    12    13    1
    28    12    53    1
    29    12    54    1
    30    13    14   am
    31    13    55    1
    32    14    15    2
    33    16    17   am
    34    16    56    1
    35    17    18    2
    36    17    19    1
    37    19    20    1
    38    19    24    1
    39    19    57    1
    40    20    21    1
    41    20    58    1
    42    20    59    1
    43    21    22    1
    44    21    23    1
    45    21    60    1
    46    22    61    1
    47    22    62    1
    48    22    63    1
    49    23    64    1
    50    23    65    1
    51    23    66    1
    52    24    25   am
    53    24    67    1
    54    25    26    2
    55    25    27    1
    56    27    28    1
    57    27    37    1
    58    27    68    1
    59    28    29   am
    60    28    69    1
    61    29    30    2
    62    29    31    1
    63    31    36   ar
    64    31    32   ar
    65    32    33   ar
    66    33    34   ar
    67    34    35    1
    68    34    36   ar
    69    35    70    1
    70    35    71    1
    71    35    72    1
    72    36    73    1
    73    37    38    1
    74    37    39    1
    75    37    74    1
    76    38    75    1
    77    38    76    1
    78    38    77    1
    79    39    78    1
    80    39    79    1
    81    39    80    1
