
                    3D
 Schrodinger Suite 2019-4.
 80 81  0  0  1  0            999 V2000
  -24.8195   -4.7453  -20.5399 C   0  0  0  0  0  0
  -24.5743   -3.3653  -21.1550 C   0  0  0  0  0  0
  -23.9000   -3.5545  -22.3779 O   0  0  0  0  0  0
  -22.6723   -3.0868  -22.5690 C   0  0  0  0  0  0
  -22.0967   -2.2802  -21.8400 O   0  0  0  0  0  0
  -22.0863   -3.7258  -23.7443 C   0  0  0  0  0  0
  -20.8628   -3.4169  -24.1918 C   0  0  0  0  0  0
  -20.2071   -4.1218  -25.3540 C   0  0  2  0  0  0
  -18.6768   -4.0190  -25.2578 C   0  0  0  0  0  0
  -17.9535   -5.2859  -25.7416 C   0  0  2  0  0  0
  -18.3892   -6.5822  -25.0316 C   0  0  0  0  0  0
  -17.1108   -7.3940  -24.8170 C   0  0  0  0  0  0
  -16.0589   -6.4088  -24.9144 N   0  0  0  0  0  0
  -16.4677   -5.2505  -25.4219 C   0  0  0  0  0  0
  -15.7566   -4.2718  -25.6212 O   0  0  0  0  0  0
  -20.6955   -3.6701  -26.6608 N   0  0  0  0  0  0
  -21.5793   -4.3606  -27.4006 C   0  0  0  0  0  0
  -22.1782   -5.3483  -26.9706 O   0  0  0  0  0  0
  -21.7953   -3.9245  -28.8625 C   0  0  2  0  0  0
  -23.1854   -3.2526  -28.9949 C   0  0  0  0  0  0
  -23.6890   -2.9774  -30.4322 C   0  0  0  0  0  0
  -22.6612   -2.2439  -31.3080 C   0  0  0  0  0  0
  -24.9875   -2.1665  -30.4073 C   0  0  0  0  0  0
  -21.7123   -5.1130  -29.7121 N   0  0  0  0  0  0
  -20.5776   -5.7909  -29.9610 C   0  0  0  0  0  0
  -19.4685   -5.3635  -29.6369 O   0  0  0  0  0  0
  -20.6746   -7.1731  -30.6422 C   0  0  2  0  0  0
  -19.8528   -7.1880  -31.8591 N   0  0  0  0  0  0
  -20.1261   -6.5185  -32.9895 C   0  0  0  0  0  0
  -21.0305   -5.6867  -33.0914 O   0  0  0  0  0  0
  -19.2494   -6.8254  -34.1607 C   0  0  0  0  0  0
  -18.5636   -5.9534  -34.8782 N   0  0  0  0  0  0
  -18.1524   -6.6495  -36.0148 O   0  0  0  0  0  0
  -18.4955   -7.9516  -35.8787 C   0  0  0  0  0  0
  -18.0697   -8.8657  -36.9736 C   0  0  0  0  0  0
  -19.1985   -8.1319  -34.7209 C   0  0  0  0  0  0
  -22.0926   -7.7903  -30.8823 C   0  0  0  0  0  0
  -23.0261   -7.8428  -29.6492 C   0  0  0  0  0  0
  -21.9600   -9.2157  -31.4595 C   0  0  0  0  0  0
  -25.3989   -4.6810  -19.6215 H   0  0  0  0  0  0
  -25.3791   -5.3778  -21.2294 H   0  0  0  0  0  0
  -23.8816   -5.2525  -20.3135 H   0  0  0  0  0  0
  -24.0141   -2.7336  -20.4670 H   0  0  0  0  0  0
  -25.5244   -2.8706  -21.3569 H   0  0  0  0  0  0
  -22.6669   -4.4835  -24.2509 H   0  0  0  0  0  0
  -20.2795   -2.6562  -23.6973 H   0  0  0  0  0  0
  -20.4931   -5.1637  -25.2097 H   0  0  0  0  0  0
  -18.3854   -3.8463  -24.2206 H   0  0  0  0  0  0
  -18.3299   -3.1462  -25.8112 H   0  0  0  0  0  0
  -18.0631   -5.3949  -26.8221 H   0  0  0  0  0  0
  -19.1259   -7.1421  -25.6092 H   0  0  0  0  0  0
  -18.8348   -6.3559  -24.0635 H   0  0  0  0  0  0
  -16.9746   -8.1334  -25.6081 H   0  0  0  0  0  0
  -17.1036   -7.9128  -23.8598 H   0  0  0  0  0  0
  -15.0988   -6.6064  -24.6612 H   0  0  0  0  0  0
  -20.2681   -2.8483  -27.0649 H   0  0  0  0  0  0
  -21.0167   -3.2300  -29.1679 H   0  0  0  0  0  0
  -23.1498   -2.3065  -28.4526 H   0  0  0  0  0  0
  -23.9387   -3.8573  -28.4863 H   0  0  0  0  0  0
  -23.9096   -3.9380  -30.9011 H   0  0  0  0  0  0
  -23.0720   -2.0236  -32.2938 H   0  0  0  0  0  0
  -22.3498   -1.2997  -30.8588 H   0  0  0  0  0  0
  -21.7712   -2.8521  -31.4685 H   0  0  0  0  0  0
  -25.4634   -2.1721  -31.3874 H   0  0  0  0  0  0
  -25.6882   -2.5595  -29.6740 H   0  0  0  0  0  0
  -24.7843   -1.1274  -30.1548 H   0  0  0  0  0  0
  -22.5851   -5.5201  -30.0143 H   0  0  0  0  0  0
  -20.1653   -7.8454  -29.9528 H   0  0  0  0  0  0
  -19.0574   -7.8106  -31.8629 H   0  0  0  0  0  0
  -18.9197   -9.4315  -37.3565 H   0  0  0  0  0  0
  -17.6256   -8.3117  -37.8012 H   0  0  0  0  0  0
  -17.3262   -9.5743  -36.6089 H   0  0  0  0  0  0
  -19.6509   -9.0445  -34.3637 H   0  0  0  0  0  0
  -22.6064   -7.1682  -31.6139 H   0  0  0  0  0  0
  -23.9860   -7.3742  -29.8707 H   0  0  0  0  0  0
  -23.2407   -8.8655  -29.3373 H   0  0  0  0  0  0
  -22.6142   -7.3435  -28.7751 H   0  0  0  0  0  0
  -22.9312   -9.6956  -31.5556 H   0  0  0  0  0  0
  -21.4963   -9.2200  -32.4450 H   0  0  0  0  0  0
  -21.3573   -9.8496  -30.8092 H   0  0  0  0  0  0
  1  2  1  0  0  0
  1 40  1  0  0  0
  1 41  1  0  0  0
  1 42  1  0  0  0
  2  3  1  0  0  0
  2 43  1  0  0  0
  2 44  1  0  0  0
  3  4  1  0  0  0
  4  5  2  0  0  0
  4  6  1  0  0  0
  6  7  2  0  0  0
  6 45  1  0  0  0
  7  8  1  0  0  0
  7 46  1  0  0  0
  8  9  1  0  0  0
  8 16  1  0  0  0
  8 47  1  0  0  0
  9 10  1  0  0  0
  9 48  1  0  0  0
  9 49  1  0  0  0
 10 14  1  0  0  0
 10 11  1  0  0  0
 10 50  1  0  0  0
 11 12  1  0  0  0
 11 51  1  0  0  0
 11 52  1  0  0  0
 12 13  1  0  0  0
 12 53  1  0  0  0
 12 54  1  0  0  0
 13 14  1  0  0  0
 13 55  1  0  0  0
 14 15  2  0  0  0
 16 17  1  0  0  0
 16 56  1  0  0  0
 17 18  2  0  0  0
 17 19  1  0  0  0
 19 20  1  0  0  0
 19 24  1  0  0  0
 19 57  1  0  0  0
 20 21  1  0  0  0
 20 58  1  0  0  0
 20 59  1  0  0  0
 21 22  1  0  0  0
 21 23  1  0  0  0
 21 60  1  0  0  0
 22 61  1  0  0  0
 22 62  1  0  0  0
 22 63  1  0  0  0
 23 64  1  0  0  0
 23 65  1  0  0  0
 23 66  1  0  0  0
 24 25  1  0  0  0
 24 67  1  0  0  0
 25 26  2  0  0  0
 25 27  1  0  0  0
 27 28  1  0  0  0
 27 37  1  0  0  0
 27 68  1  0  0  0
 28 29  1  0  0  0
 28 69  1  0  0  0
 29 30  2  0  0  0
 29 31  1  0  0  0
 31 36  1  0  0  0
 31 32  2  0  0  0
 32 33  1  0  0  0
 33 34  1  0  0  0
 34 35  1  0  0  0
 34 36  2  0  0  0
 35 70  1  0  0  0
 35 71  1  0  0  0
 35 72  1  0  0  0
 36 73  1  0  0  0
 37 38  1  0  0  0
 37 39  1  0  0  0
 37 74  1  0  0  0
 38 75  1  0  0  0
 38 76  1  0  0  0
 38 77  1  0  0  0
 39 78  1  0  0  0
 39 79  1  0  0  0
 39 80  1  0  0  0
M  END
$$$$
