@<TRIPOS>MOLECULE
*****
 62 64 0 0 0
SMALL
GASTEIGER
****
Schrodinger Suite 2019-4.
@<TRIPOS>ATOM
      1 C         -18.2711   -9.8135  -28.8119 C.3     1  UNL1       -0.0442
      2 C         -19.5561   -9.5593  -27.9969 C.3     1  UNL1        0.0262
      3 C         -20.7780   -9.8956  -28.8814 C.3     1  UNL1       -0.0442
      4 C         -19.5326  -10.4741  -26.7502 C.3     1  UNL1       -0.0442
      5 N         -19.5531   -8.1433  -27.6155 N.am    1  UNL1       -0.3087
      6 C         -20.4600   -7.4732  -26.8783 C.2     1  UNL1        0.2389
      7 O         -21.4851   -7.9753  -26.4284 O.2     1  UNL1       -0.2734
      8 C         -20.1298   -5.9824  -26.6031 C.3     1  UNL1        0.1339
      9 C         -18.8175   -5.7313  -25.8635 C.ar    1  UNL1        0.0034
     10 C         -18.0281   -6.7450  -25.2873 C.ar    1  UNL1       -0.0350
     11 C         -16.7843   -6.4107  -24.7582 C.ar    1  UNL1        0.0503
     12 N         -16.3290   -5.1344  -24.7473 N.ar    1  UNL1       -0.1577
     13 N         -17.0922   -4.1571  -25.2530 N.ar    1  UNL1       -0.1574
     14 C         -18.2993   -4.4369  -25.8041 C.ar    1  UNL1        0.0554
     15 N         -21.3036   -5.1137  -26.2316 N.am    1  UNL1       -0.2488
     16 C         -21.6341   -4.8001  -24.9273 C.2     1  UNL1        0.2870
     17 O         -20.8832   -4.9570  -23.9639 O.2     1  UNL1       -0.2662
     18 C         -22.9239   -4.2094  -24.6358 C.ar    1  UNL1        0.1896
     19 C         -24.2166   -4.5438  -25.0340 C.ar    1  UNL1       -0.0113
     20 C         -25.0856   -3.7308  -24.3098 C.ar    1  UNL1       -0.0231
     21 C         -24.3006   -2.9568  -23.4815 C.ar    1  UNL1        0.0928
     22 O         -22.9946   -3.2793  -23.6417 O.2     1  UNL1       -0.4583
     23 C         -22.1287   -4.6888  -27.3051 C.ar    1  UNL1        0.0379
     24 C         -22.0514   -3.3563  -27.7106 C.ar    1  UNL1       -0.0400
     25 C         -22.8206   -2.8984  -28.7739 C.ar    1  UNL1       -0.0563
     26 C         -23.6905   -3.7612  -29.4565 C.ar    1  UNL1       -0.0419
     27 C         -24.5336   -3.2892  -30.6688 C.3     1  UNL1       -0.0127
     28 C         -24.1264   -4.0929  -31.9233 C.3     1  UNL1       -0.0560
     29 C         -24.3473   -1.7862  -31.0050 C.3     1  UNL1       -0.0560
     30 C         -26.0413   -3.5201  -30.4011 C.3     1  UNL1       -0.0560
     31 C         -23.7750   -5.0950  -29.0288 C.ar    1  UNL1       -0.0563
     32 C         -23.0017   -5.5603  -27.9666 C.ar    1  UNL1       -0.0400
     33 H         -17.3740   -9.5827  -28.2348 H       1  UNL1        0.0250
     34 H         -18.1913  -10.8551  -29.1283 H       1  UNL1        0.0250
     35 H         -18.2358   -9.2012  -29.7138 H       1  UNL1        0.0250
     36 H         -21.7195   -9.7534  -28.3496 H       1  UNL1        0.0250
     37 H         -20.8106   -9.2678  -29.7729 H       1  UNL1        0.0250
     38 H         -20.7553  -10.9334  -29.2148 H       1  UNL1        0.0250
     39 H         -20.4335  -10.3686  -26.1471 H       1  UNL1        0.0250
     40 H         -19.4540  -11.5249  -27.0282 H       1  UNL1        0.0250
     41 H         -18.6862  -10.2435  -26.1038 H       1  UNL1        0.0250
     42 H         -18.7413   -7.6290  -27.9243 H       1  UNL1        0.1493
     43 H         -19.9325   -5.6721  -27.6314 H       1  UNL1        0.0652
     44 H         -18.3426   -7.7791  -25.2630 H       1  UNL1        0.0637
     45 H         -16.1236   -7.1625  -24.3484 H       1  UNL1        0.0848
     46 H         -18.8431   -3.5994  -26.2168 H       1  UNL1        0.0851
     47 H         -24.5011   -5.3051  -25.7463 H       1  UNL1        0.0657
     48 H         -26.1655   -3.7224  -24.3607 H       1  UNL1        0.0649
     49 H         -24.5225   -2.1993  -22.7465 H       1  UNL1        0.1029
     50 H         -21.3901   -2.6665  -27.2055 H       1  UNL1        0.0636
     51 H         -22.7138   -1.8600  -29.0496 H       1  UNL1        0.0621
     52 H         -24.7503   -3.8174  -32.7711 H       1  UNL1        0.0238
     53 H         -23.0866   -3.9119  -32.2014 H       1  UNL1        0.0238
     54 H         -24.2432   -5.1677  -31.7837 H       1  UNL1        0.0238
     55 H         -24.9595   -1.4919  -31.8590 H       1  UNL1        0.0238
     56 H         -24.6384   -1.1455  -30.1721 H       1  UNL1        0.0238
     57 H         -23.3139   -1.5513  -31.2668 H       1  UNL1        0.0238
     58 H         -26.6588   -3.1077  -31.2008 H       1  UNL1        0.0238
     59 H         -26.2842   -4.5810  -30.3466 H       1  UNL1        0.0238
     60 H         -26.3617   -3.0504  -29.4704 H       1  UNL1        0.0238
     61 H         -24.4375   -5.7895  -29.5260 H       1  UNL1        0.0621
     62 H         -23.1007   -6.5918  -27.6632 H       1  UNL1        0.0636
@<TRIPOS>BOND
     1     1     2    1
     2     1    33    1
     3     1    34    1
     4     1    35    1
     5     2     3    1
     6     2     4    1
     7     2     5    1
     8     3    36    1
     9     3    37    1
    10     3    38    1
    11     4    39    1
    12     4    40    1
    13     4    41    1
    14     5     6   am
    15     5    42    1
    16     6     7    2
    17     6     8    1
    18     8     9    1
    19     8    15    1
    20     8    43    1
    21     9    14   ar
    22     9    10   ar
    23    10    11   ar
    24    10    44    1
    25    11    12   ar
    26    11    45    1
    27    12    13   ar
    28    13    14   ar
    29    14    46    1
    30    15    16   am
    31    15    23    1
    32    16    17    2
    33    16    18    1
    34    18    22   ar
    35    18    19   ar
    36    19    20   ar
    37    19    47    1
    38    20    21   ar
    39    20    48    1
    40    21    22   ar
    41    21    49    1
    42    23    32   ar
    43    23    24   ar
    44    24    25   ar
    45    24    50    1
    46    25    26   ar
    47    25    51    1
    48    26    27    1
    49    26    31   ar
    50    27    28    1
    51    27    29    1
    52    27    30    1
    53    28    52    1
    54    28    53    1
    55    28    54    1
    56    29    55    1
    57    29    56    1
    58    29    57    1
    59    30    58    1
    60    30    59    1
    61    30    60    1
    62    31    32   ar
    63    31    61    1
    64    32    62    1
