@<TRIPOS>MOLECULE
*****
 87 90 0 0 0
SMALL
GASTEIGER
****
Schrodinger Suite 2019-4.
@<TRIPOS>ATOM
      1 C         -21.9751   -7.8140  -26.6356 C.3     1  UNL1       -0.0626
      2 C         -23.3037   -7.0333  -26.6077 C.3     1  UNL1       -0.0446
      3 C         -24.4968   -7.9916  -26.5066 C.3     1  UNL1       -0.0626
      4 C         -23.5059   -6.1023  -27.8239 C.3     1  UNL1       -0.0236
      5 C         -22.4067   -5.0519  -28.1305 C.3     1  UNL1        0.0996
      6 N         -22.7125   -4.2913  -29.3482 N.am    1  UNL1       -0.3025
      7 C         -23.8471   -3.6172  -29.6077 C.2     1  UNL1        0.2342
      8 O         -24.7236   -3.4532  -28.7621 O.2     1  UNL1       -0.2738
      9 C         -24.0175   -3.0315  -31.0168 C.3     1  UNL1        0.1018
     10 N         -22.8155   -2.3578  -31.4874 N.am    1  UNL1       -0.3010
     11 C         -22.3626   -1.1306  -31.2028 C.2     1  UNL1        0.2513
     12 O         -22.9480   -0.2697  -30.5543 O.2     1  UNL1       -0.2721
     13 C         -20.9344   -0.9221  -31.5976 C.3     1  UNL1        0.1652
     14 O         -20.2180   -1.3007  -30.4432 O.3     1  UNL1       -0.4828
     15 C         -20.0396   -2.6326  -30.1361 C.ar    1  UNL1        0.1214
     16 C         -19.7738   -2.9023  -28.7862 C.ar    1  UNL1       -0.0165
     17 C         -19.1708   -4.1067  -28.3980 C.ar    1  UNL1       -0.0167
     18 C         -18.9605   -5.1208  -29.3374 C.ar    1  UNL1        0.1171
     19 O         -18.3854   -6.2882  -28.9317 O.3     1  UNL1       -0.5068
     20 C         -19.3415   -4.9153  -30.6784 C.ar    1  UNL1       -0.0167
     21 C         -19.8611   -3.6672  -31.0858 C.ar    1  UNL1       -0.0165
     22 C         -25.3930   -2.3422  -31.2958 C.3     1  UNL1       -0.0197
     23 C         -26.2544   -3.2782  -32.1238 C.3     1  UNL1       -0.0605
     24 C         -25.3917   -0.9997  -31.9776 C.3     1  UNL1       -0.0605
     25 C         -21.9835   -4.1565  -26.9511 C.2     1  UNL1        0.2339
     26 O         -22.2599   -2.9579  -26.9340 O.2     1  UNL1       -0.2738
     27 N         -21.2780   -4.7723  -25.9878 N.am    1  UNL1       -0.3037
     28 C         -20.7946   -4.2830  -24.6945 C.3     1  UNL1        0.0888
     29 C         -21.7554   -3.3071  -24.0134 C.3     1  UNL1       -0.0160
     30 C         -23.2165   -3.7799  -23.8845 C.3     1  UNL1        0.0390
     31 C         -23.4720   -4.8316  -22.8036 C.3     1  UNL1       -0.0262
     32 C         -24.7449   -4.3742  -22.0791 C.3     1  UNL1        0.0123
     33 N         -24.9366   -3.0005  -22.4967 N.am    1  UNL1       -0.3151
     34 C         -24.1389   -2.6418  -23.4955 C.2     1  UNL1        0.2162
     35 O         -24.1295   -1.5489  -24.0513 O.2     1  UNL1       -0.2755
     36 C         -19.3300   -3.7877  -24.7648 C.2     1  UNL1        0.2079
     37 O         -19.0308   -2.5952  -24.7170 O.2     1  UNL1       -0.2879
     38 C         -18.2443   -4.8040  -24.8982 C.ar    1  UNL1        0.1465
     39 N         -16.9324   -4.5495  -25.0144 N.ar    1  UNL1       -0.2360
     40 C         -16.2247   -5.7506  -25.0200 C.ar    1  UNL1        0.0790
     41 C         -14.8290   -5.9212  -25.0818 C.ar    1  UNL1       -0.0352
     42 C         -14.2397   -7.1949  -24.9758 C.ar    1  UNL1       -0.0597
     43 C         -15.0401   -8.3443  -24.8767 C.ar    1  UNL1       -0.0606
     44 C         -16.4365   -8.2149  -24.8781 C.ar    1  UNL1       -0.0459
     45 C         -17.0108   -6.9341  -24.9360 C.ar    1  UNL1        0.0396
     46 S         -18.7006   -6.5142  -24.9179 S.2     1  UNL1       -0.0643
     47 H         -21.2114   -7.3424  -26.0254 H       1  UNL1        0.0232
     48 H         -22.0888   -8.8223  -26.2369 H       1  UNL1        0.0232
     49 H         -21.5753   -7.8949  -27.6449 H       1  UNL1        0.0232
     50 H         -23.3242   -6.4406  -25.6937 H       1  UNL1        0.0296
     51 H         -25.4367   -7.4427  -26.4369 H       1  UNL1        0.0232
     52 H         -24.5577   -8.6429  -27.3790 H       1  UNL1        0.0232
     53 H         -24.4226   -8.6228  -25.6197 H       1  UNL1        0.0232
     54 H         -24.4665   -5.6126  -27.6752 H       1  UNL1        0.0290
     55 H         -23.6352   -6.7239  -28.7120 H       1  UNL1        0.0290
     56 H         -21.5182   -5.6229  -28.3953 H       1  UNL1        0.0594
     57 H         -22.0208   -4.3329  -30.0819 H       1  UNL1        0.1495
     58 H         -23.9896   -3.9282  -31.6399 H       1  UNL1        0.0597
     59 H         -22.1886   -2.9441  -32.0186 H       1  UNL1        0.1496
     60 H         -20.7601    0.1312  -31.8118 H       1  UNL1        0.0795
     61 H         -20.6718   -1.4726  -32.4980 H       1  UNL1        0.0795
     62 H         -19.9670   -2.1439  -28.0467 H       1  UNL1        0.0655
     63 H         -18.8856   -4.2620  -27.3749 H       1  UNL1        0.0655
     64 H         -18.0831   -6.2593  -28.0358 H       1  UNL1        0.2921
     65 H         -19.1856   -5.6965  -31.4090 H       1  UNL1        0.0655
     66 H         -20.0559   -3.5062  -32.1331 H       1  UNL1        0.0655
     67 H         -25.9314   -2.1640  -30.3671 H       1  UNL1        0.0318
     68 H         -25.7556   -3.6081  -33.0287 H       1  UNL1        0.0233
     69 H         -26.4289   -4.1478  -31.5244 H       1  UNL1        0.0233
     70 H         -27.2252   -2.8537  -32.3774 H       1  UNL1        0.0233
     71 H         -26.2919   -0.8575  -32.5673 H       1  UNL1        0.0233
     72 H         -25.3233   -0.1873  -31.2595 H       1  UNL1        0.0233
     73 H         -24.5565   -0.9592  -32.6505 H       1  UNL1        0.0233
     74 H         -21.1139   -5.7554  -26.1497 H       1  UNL1        0.1495
     75 H         -20.8202   -5.1544  -24.0412 H       1  UNL1        0.0582
     76 H         -21.7475   -2.4045  -24.6041 H       1  UNL1        0.0295
     77 H         -21.3661   -3.0412  -23.0296 H       1  UNL1        0.0295
     78 H         -23.6092   -4.1516  -24.8273 H       1  UNL1        0.0395
     79 H         -22.6407   -4.8729  -22.1085 H       1  UNL1        0.0288
     80 H         -23.5865   -5.8314  -23.2256 H       1  UNL1        0.0288
     81 H         -24.6485   -4.4557  -20.9967 H       1  UNL1        0.0462
     82 H         -25.6083   -4.9624  -22.3933 H       1  UNL1        0.0462
     83 H         -25.6173   -2.3911  -22.0677 H       1  UNL1        0.1487
     84 H         -14.2076   -5.0575  -25.1984 H       1  UNL1        0.0639
     85 H         -13.1640   -7.2929  -24.9782 H       1  UNL1        0.0618
     86 H         -14.5788   -9.3198  -24.8208 H       1  UNL1        0.0618
     87 H         -17.0656   -9.0894  -24.8151 H       1  UNL1        0.0629
@<TRIPOS>BOND
     1     1     2    1
     2     1    47    1
     3     1    48    1
     4     1    49    1
     5     2     3    1
     6     2     4    1
     7     2    50    1
     8     3    51    1
     9     3    52    1
    10     3    53    1
    11     4     5    1
    12     4    54    1
    13     4    55    1
    14     5     6    1
    15     5    25    1
    16     5    56    1
    17     6     7   am
    18     6    57    1
    19     7     8    2
    20     7     9    1
    21     9    10    1
    22     9    22    1
    23     9    58    1
    24    10    11   am
    25    10    59    1
    26    11    12    2
    27    11    13    1
    28    13    14    1
    29    13    60    1
    30    13    61    1
    31    14    15    1
    32    15    21   ar
    33    15    16   ar
    34    16    17   ar
    35    16    62    1
    36    17    18   ar
    37    17    63    1
    38    18    19    1
    39    18    20   ar
    40    19    64    1
    41    20    21   ar
    42    20    65    1
    43    21    66    1
    44    22    23    1
    45    22    24    1
    46    22    67    1
    47    23    68    1
    48    23    69    1
    49    23    70    1
    50    24    71    1
    51    24    72    1
    52    24    73    1
    53    25    26    2
    54    25    27   am
    55    27    28    1
    56    27    74    1
    57    28    29    1
    58    28    36    1
    59    28    75    1
    60    29    30    1
    61    29    76    1
    62    29    77    1
    63    30    34    1
    64    30    31    1
    65    30    78    1
    66    31    32    1
    67    31    79    1
    68    31    80    1
    69    32    33    1
    70    32    81    1
    71    32    82    1
    72    33    34   am
    73    33    83    1
    74    34    35    2
    75    36    37    2
    76    36    38    1
    77    38    46   ar
    78    38    39   ar
    79    39    40   ar
    80    40    45   ar
    81    40    41   ar
    82    41    42   ar
    83    41    84    1
    84    42    43   ar
    85    42    85    1
    86    43    44   ar
    87    43    86    1
    88    44    45   ar
    89    44    87    1
    90    45    46   ar
