@<TRIPOS>MOLECULE
*****
 71 74 0 0 0
SMALL
GASTEIGER
****
Schrodinger Suite 2019-4.
@<TRIPOS>ATOM
      1 C         -17.8391   -4.9673  -24.2738 C.3     1  UNL1       -0.0626
      2 C         -18.9744   -4.4758  -25.1842 C.3     1  UNL1       -0.0446
      3 C         -18.6415   -3.1045  -25.7920 C.3     1  UNL1       -0.0626
      4 C         -20.3428   -4.5093  -24.4577 C.3     1  UNL1       -0.0236
      5 C         -21.6080   -4.3100  -25.3373 C.3     1  UNL1        0.0996
      6 N         -22.7860   -4.6383  -24.5480 N.am    1  UNL1       -0.3040
      7 C         -23.7171   -3.7927  -24.0979 C.2     1  UNL1        0.2139
      8 O         -23.6546   -2.5723  -24.2311 O.2     1  UNL1       -0.2758
      9 C         -24.8893   -4.4178  -23.3321 C.3     1  UNL1        0.0280
     10 C         -25.6543   -5.5208  -24.1080 C.3     1  UNL1       -0.0180
     11 C         -26.2447   -5.1021  -25.4548 C.ar    1  UNL1       -0.0288
     12 C         -26.2017   -5.9691  -26.5547 C.ar    1  UNL1       -0.0557
     13 C         -26.7938   -5.5911  -27.7602 C.ar    1  UNL1       -0.0433
     14 C         -27.4254   -4.3457  -27.8300 C.ar    1  UNL1        0.0276
     15 N         -27.4596   -3.4781  -26.7907 N.ar    1  UNL1       -0.2630
     16 C         -26.8785   -3.8657  -25.6261 C.ar    1  UNL1        0.0307
     17 C         -21.6364   -5.2479  -26.5462 C.2     1  UNL1        0.2339
     18 O         -21.8523   -6.4492  -26.3781 O.2     1  UNL1       -0.2738
     19 N         -21.4024   -4.6891  -27.7431 N.am    1  UNL1       -0.3037
     20 C         -21.2991   -5.4395  -29.0048 C.3     1  UNL1        0.0888
     21 C         -21.6033   -4.5354  -30.2216 C.3     1  UNL1       -0.0160
     22 C         -22.8849   -3.6651  -30.1388 C.3     1  UNL1        0.0390
     23 C         -24.1711   -4.4802  -30.1250 C.3     1  UNL1       -0.0262
     24 C         -24.5271   -4.6196  -31.5939 C.3     1  UNL1        0.0123
     25 N         -23.9680   -3.4010  -32.1589 N.am    1  UNL1       -0.3151
     26 C         -22.9842   -2.8441  -31.4344 C.2     1  UNL1        0.2162
     27 O         -22.2942   -1.8748  -31.7353 O.2     1  UNL1       -0.2755
     28 C         -19.8789   -6.0176  -29.1409 C.2     1  UNL1        0.2079
     29 O         -18.9402   -5.5214  -28.5130 O.2     1  UNL1       -0.2879
     30 C         -19.6028   -7.1053  -30.0892 C.ar    1  UNL1        0.1465
     31 N         -18.4086   -7.5691  -30.3503 N.ar    1  UNL1       -0.2360
     32 C         -18.4070   -8.4920  -31.3456 C.ar    1  UNL1        0.0790
     33 C         -17.2600   -9.1072  -31.8686 C.ar    1  UNL1       -0.0352
     34 C         -17.4160  -10.0185  -32.9123 C.ar    1  UNL1       -0.0597
     35 C         -18.6805  -10.3258  -33.4199 C.ar    1  UNL1       -0.0606
     36 C         -19.8355   -9.7370  -32.9037 C.ar    1  UNL1       -0.0459
     37 C         -19.6874   -8.8095  -31.8643 C.ar    1  UNL1        0.0396
     38 S         -20.8971   -7.8737  -30.9985 S.2     1  UNL1       -0.0643
     39 H         -18.0893   -5.9295  -23.8327 H       1  UNL1        0.0232
     40 H         -16.9135   -5.1006  -24.8333 H       1  UNL1        0.0232
     41 H         -17.6377   -4.2741  -23.4581 H       1  UNL1        0.0232
     42 H         -19.0036   -5.1978  -25.9953 H       1  UNL1        0.0296
     43 H         -19.4093   -2.7791  -26.4922 H       1  UNL1        0.0232
     44 H         -18.5393   -2.3438  -25.0203 H       1  UNL1        0.0232
     45 H         -17.7038   -3.1403  -26.3457 H       1  UNL1        0.0232
     46 H         -20.3454   -3.7657  -23.6594 H       1  UNL1        0.0290
     47 H         -20.4294   -5.4749  -23.9584 H       1  UNL1        0.0290
     48 H         -21.6580   -3.2760  -25.6850 H       1  UNL1        0.0594
     49 H         -22.8953   -5.6267  -24.3525 H       1  UNL1        0.1494
     50 H         -25.5771   -3.6196  -23.0478 H       1  UNL1        0.0361
     51 H         -24.5056   -4.8135  -22.3921 H       1  UNL1        0.0361
     52 H         -26.4803   -5.8730  -23.4897 H       1  UNL1        0.0318
     53 H         -25.0039   -6.3868  -24.2422 H       1  UNL1        0.0318
     54 H         -25.7194   -6.9333  -26.4771 H       1  UNL1        0.0621
     55 H         -26.7743   -6.2487  -28.6180 H       1  UNL1        0.0633
     56 H         -27.9178   -4.0235  -28.7366 H       1  UNL1        0.0829
     57 H         -26.9399   -3.1538  -24.8178 H       1  UNL1        0.0832
     58 H         -21.2161   -3.6958  -27.7966 H       1  UNL1        0.1495
     59 H         -22.0311   -6.2479  -28.9860 H       1  UNL1        0.0582
     60 H         -21.7011   -5.1779  -31.0918 H       1  UNL1        0.0295
     61 H         -20.7512   -3.8743  -30.4022 H       1  UNL1        0.0295
     62 H         -22.8658   -2.9794  -29.2884 H       1  UNL1        0.0395
     63 H         -24.9397   -3.9157  -29.6005 H       1  UNL1        0.0288
     64 H         -24.1010   -5.4370  -29.6104 H       1  UNL1        0.0288
     65 H         -25.6013   -4.6750  -31.7594 H       1  UNL1        0.0462
     66 H         -24.0713   -5.4936  -32.0652 H       1  UNL1        0.0462
     67 H         -24.1948   -3.0788  -33.0873 H       1  UNL1        0.1487
     68 H         -16.2818   -8.8811  -31.4706 H       1  UNL1        0.0639
     69 H         -16.5421  -10.5011  -33.3316 H       1  UNL1        0.0618
     70 H         -18.7619  -11.0429  -34.2250 H       1  UNL1        0.0618
     71 H         -20.8118   -9.9865  -33.2936 H       1  UNL1        0.0629
@<TRIPOS>BOND
     1     1     2    1
     2     1    39    1
     3     1    40    1
     4     1    41    1
     5     2     3    1
     6     2     4    1
     7     2    42    1
     8     3    43    1
     9     3    44    1
    10     3    45    1
    11     4     5    1
    12     4    46    1
    13     4    47    1
    14     5     6    1
    15     5    17    1
    16     5    48    1
    17     6     7   am
    18     6    49    1
    19     7     8    2
    20     7     9    1
    21     9    10    1
    22     9    50    1
    23     9    51    1
    24    10    11    1
    25    10    52    1
    26    10    53    1
    27    11    16   ar
    28    11    12   ar
    29    12    13   ar
    30    12    54    1
    31    13    14   ar
    32    13    55    1
    33    14    15   ar
    34    14    56    1
    35    15    16   ar
    36    16    57    1
    37    17    18    2
    38    17    19   am
    39    19    20    1
    40    19    58    1
    41    20    21    1
    42    20    28    1
    43    20    59    1
    44    21    22    1
    45    21    60    1
    46    21    61    1
    47    22    26    1
    48    22    23    1
    49    22    62    1
    50    23    24    1
    51    23    63    1
    52    23    64    1
    53    24    25    1
    54    24    65    1
    55    24    66    1
    56    25    26   am
    57    25    67    1
    58    26    27    2
    59    28    29    2
    60    28    30    1
    61    30    38   ar
    62    30    31   ar
    63    31    32   ar
    64    32    37   ar
    65    32    33   ar
    66    33    34   ar
    67    33    68    1
    68    34    35   ar
    69    34    69    1
    70    35    36   ar
    71    35    70    1
    72    36    37   ar
    73    36    71    1
    74    37    38   ar
