
                    3D
 Schrodinger Suite 2019-4.
 71 74  0  0  1  0            999 V2000
  -17.8391   -4.9673  -24.2738 C   0  0  0  0  0  0
  -18.9744   -4.4758  -25.1842 C   0  0  0  0  0  0
  -18.6415   -3.1045  -25.7920 C   0  0  0  0  0  0
  -20.3428   -4.5093  -24.4577 C   0  0  0  0  0  0
  -21.6080   -4.3100  -25.3373 C   0  0  2  0  0  0
  -22.7860   -4.6383  -24.5480 N   0  0  0  0  0  0
  -23.7171   -3.7927  -24.0979 C   0  0  0  0  0  0
  -23.6546   -2.5723  -24.2311 O   0  0  0  0  0  0
  -24.8893   -4.4178  -23.3321 C   0  0  0  0  0  0
  -25.6543   -5.5208  -24.1080 C   0  0  0  0  0  0
  -26.2447   -5.1021  -25.4548 C   0  0  0  0  0  0
  -26.2017   -5.9691  -26.5547 C   0  0  0  0  0  0
  -26.7938   -5.5911  -27.7602 C   0  0  0  0  0  0
  -27.4254   -4.3457  -27.8300 C   0  0  0  0  0  0
  -27.4596   -3.4781  -26.7907 N   0  0  0  0  0  0
  -26.8785   -3.8657  -25.6261 C   0  0  0  0  0  0
  -21.6364   -5.2479  -26.5462 C   0  0  0  0  0  0
  -21.8523   -6.4492  -26.3781 O   0  0  0  0  0  0
  -21.4024   -4.6891  -27.7431 N   0  0  0  0  0  0
  -21.2991   -5.4395  -29.0048 C   0  0  1  0  0  0
  -21.6033   -4.5354  -30.2216 C   0  0  0  0  0  0
  -22.8849   -3.6651  -30.1388 C   0  0  2  0  0  0
  -24.1711   -4.4802  -30.1250 C   0  0  0  0  0  0
  -24.5271   -4.6196  -31.5939 C   0  0  0  0  0  0
  -23.9680   -3.4010  -32.1589 N   0  0  0  0  0  0
  -22.9842   -2.8441  -31.4344 C   0  0  0  0  0  0
  -22.2942   -1.8748  -31.7353 O   0  0  0  0  0  0
  -19.8789   -6.0176  -29.1409 C   0  0  0  0  0  0
  -18.9402   -5.5214  -28.5130 O   0  0  0  0  0  0
  -19.6028   -7.1053  -30.0892 C   0  0  0  0  0  0
  -18.4086   -7.5691  -30.3503 N   0  0  0  0  0  0
  -18.4070   -8.4920  -31.3456 C   0  0  0  0  0  0
  -17.2600   -9.1072  -31.8686 C   0  0  0  0  0  0
  -17.4160  -10.0185  -32.9123 C   0  0  0  0  0  0
  -18.6805  -10.3258  -33.4199 C   0  0  0  0  0  0
  -19.8355   -9.7370  -32.9037 C   0  0  0  0  0  0
  -19.6874   -8.8095  -31.8643 C   0  0  0  0  0  0
  -20.8971   -7.8737  -30.9985 S   0  0  0  0  0  0
  -18.0893   -5.9295  -23.8327 H   0  0  0  0  0  0
  -16.9135   -5.1006  -24.8333 H   0  0  0  0  0  0
  -17.6377   -4.2741  -23.4581 H   0  0  0  0  0  0
  -19.0036   -5.1978  -25.9953 H   0  0  0  0  0  0
  -19.4093   -2.7791  -26.4922 H   0  0  0  0  0  0
  -18.5393   -2.3438  -25.0203 H   0  0  0  0  0  0
  -17.7038   -3.1403  -26.3457 H   0  0  0  0  0  0
  -20.3454   -3.7657  -23.6594 H   0  0  0  0  0  0
  -20.4294   -5.4749  -23.9584 H   0  0  0  0  0  0
  -21.6580   -3.2760  -25.6850 H   0  0  0  0  0  0
  -22.8953   -5.6267  -24.3525 H   0  0  0  0  0  0
  -25.5771   -3.6196  -23.0478 H   0  0  0  0  0  0
  -24.5056   -4.8135  -22.3921 H   0  0  0  0  0  0
  -26.4803   -5.8730  -23.4897 H   0  0  0  0  0  0
  -25.0039   -6.3868  -24.2422 H   0  0  0  0  0  0
  -25.7194   -6.9333  -26.4771 H   0  0  0  0  0  0
  -26.7743   -6.2487  -28.6180 H   0  0  0  0  0  0
  -27.9178   -4.0235  -28.7366 H   0  0  0  0  0  0
  -26.9399   -3.1538  -24.8178 H   0  0  0  0  0  0
  -21.2161   -3.6958  -27.7966 H   0  0  0  0  0  0
  -22.0311   -6.2479  -28.9860 H   0  0  0  0  0  0
  -21.7011   -5.1779  -31.0918 H   0  0  0  0  0  0
  -20.7512   -3.8743  -30.4022 H   0  0  0  0  0  0
  -22.8658   -2.9794  -29.2884 H   0  0  0  0  0  0
  -24.9397   -3.9157  -29.6005 H   0  0  0  0  0  0
  -24.1010   -5.4370  -29.6104 H   0  0  0  0  0  0
  -25.6013   -4.6750  -31.7594 H   0  0  0  0  0  0
  -24.0713   -5.4936  -32.0652 H   0  0  0  0  0  0
  -24.1948   -3.0788  -33.0873 H   0  0  0  0  0  0
  -16.2818   -8.8811  -31.4706 H   0  0  0  0  0  0
  -16.5421  -10.5011  -33.3316 H   0  0  0  0  0  0
  -18.7619  -11.0429  -34.2250 H   0  0  0  0  0  0
  -20.8118   -9.9865  -33.2936 H   0  0  0  0  0  0
  1  2  1  0  0  0
  1 39  1  0  0  0
  1 40  1  0  0  0
  1 41  1  0  0  0
  2  3  1  0  0  0
  2  4  1  0  0  0
  2 42  1  0  0  0
  3 43  1  0  0  0
  3 44  1  0  0  0
  3 45  1  0  0  0
  4  5  1  0  0  0
  4 46  1  0  0  0
  4 47  1  0  0  0
  5  6  1  0  0  0
  5 17  1  0  0  0
  5 48  1  0  0  0
  6  7  1  0  0  0
  6 49  1  0  0  0
  7  8  2  0  0  0
  7  9  1  0  0  0
  9 10  1  0  0  0
  9 50  1  0  0  0
  9 51  1  0  0  0
 10 11  1  0  0  0
 10 52  1  0  0  0
 10 53  1  0  0  0
 11 16  1  0  0  0
 11 12  2  0  0  0
 12 13  1  0  0  0
 12 54  1  0  0  0
 13 14  2  0  0  0
 13 55  1  0  0  0
 14 15  1  0  0  0
 14 56  1  0  0  0
 15 16  2  0  0  0
 16 57  1  0  0  0
 17 18  2  0  0  0
 17 19  1  0  0  0
 19 20  1  0  0  0
 19 58  1  0  0  0
 20 21  1  0  0  0
 20 28  1  0  0  0
 20 59  1  0  0  0
 21 22  1  0  0  0
 21 60  1  0  0  0
 21 61  1  0  0  0
 22 26  1  0  0  0
 22 23  1  0  0  0
 22 62  1  0  0  0
 23 24  1  0  0  0
 23 63  1  0  0  0
 23 64  1  0  0  0
 24 25  1  0  0  0
 24 65  1  0  0  0
 24 66  1  0  0  0
 25 26  1  0  0  0
 25 67  1  0  0  0
 26 27  2  0  0  0
 28 29  2  0  0  0
 28 30  1  0  0  0
 30 38  1  0  0  0
 30 31  2  0  0  0
 31 32  1  0  0  0
 32 37  2  0  0  0
 32 33  1  0  0  0
 33 34  2  0  0  0
 33 68  1  0  0  0
 34 35  1  0  0  0
 34 69  1  0  0  0
 35 36  2  0  0  0
 35 70  1  0  0  0
 36 37  1  0  0  0
 36 71  1  0  0  0
 37 38  1  0  0  0
M  END
$$$$
