
                    3D
 Schrodinger Suite 2019-4.
 87 90  0  0  1  0            999 V2000
  -23.1017  -10.5471  -29.7224 C   0  0  0  0  0  0
  -23.1631  -10.0196  -28.2813 C   0  0  0  0  0  0
  -24.4184  -10.5516  -27.5594 C   0  0  0  0  0  0
  -23.1087   -8.4765  -28.2149 C   0  0  0  0  0  0
  -21.7197   -7.8443  -28.5285 C   0  0  1  0  0  0
  -21.3718   -7.8150  -29.9531 N   0  0  0  0  0  0
  -22.0628   -7.2748  -30.9714 C   0  0  0  0  0  0
  -23.2337   -6.9042  -30.9083 O   0  0  0  0  0  0
  -21.2588   -7.0987  -32.2768 C   0  0  2  0  0  0
  -21.0593   -5.6662  -32.5462 N   0  0  0  0  0  0
  -21.9672   -4.7542  -32.9449 C   0  0  0  0  0  0
  -23.0910   -5.0478  -33.3437 O   0  0  0  0  0  0
  -21.5424   -3.2729  -32.8837 C   0  0  0  0  0  0
  -22.6772   -2.4130  -32.6388 N   0  0  0  0  0  0
  -23.2985   -2.3657  -31.3854 C   0  0  0  0  0  0
  -22.5656   -2.3761  -30.1973 C   0  0  0  0  0  0
  -23.2178   -2.3757  -28.9723 C   0  0  0  0  0  0
  -24.6064   -2.3820  -28.9376 C   0  0  0  0  0  0
  -25.3419   -2.3744  -30.1179 C   0  0  0  0  0  0
  -24.6908   -2.3503  -31.3456 C   0  0  0  0  0  0
  -21.9344   -7.9373  -33.4085 C   0  0  0  0  0  0
  -21.9748   -9.4444  -33.0912 C   0  0  0  0  0  0
  -21.2740   -7.7571  -34.7836 C   0  0  0  0  0  0
  -21.5358   -6.4700  -27.8485 C   0  0  0  0  0  0
  -21.5020   -5.4378  -28.5181 O   0  0  0  0  0  0
  -21.4072   -6.5005  -26.5055 N   0  0  0  0  0  0
  -21.2170   -5.3588  -25.5881 C   0  0  2  0  0  0
  -22.4099   -4.3600  -25.6284 C   0  0  0  0  0  0
  -22.3961   -3.1961  -24.5983 C   0  0  1  0  0  0
  -23.3628   -2.0784  -24.9701 C   0  0  0  0  0  0
  -24.1464   -1.7645  -23.7114 C   0  0  0  0  0  0
  -23.7622   -2.8137  -22.7804 N   0  0  0  0  0  0
  -22.8000   -3.6553  -23.1908 C   0  0  0  0  0  0
  -22.2908   -4.5649  -22.5441 O   0  0  0  0  0  0
  -19.8340   -4.7308  -25.8381 C   0  0  0  0  0  0
  -19.7288   -3.5751  -26.2525 O   0  0  0  0  0  0
  -18.6405   -5.5259  -25.5371 C   0  0  0  0  0  0
  -18.6393   -6.7756  -25.1588 N   0  0  0  0  0  0
  -17.3863   -7.2436  -24.9419 C   0  0  0  0  0  0
  -17.0897   -8.5528  -24.5435 C   0  0  0  0  0  0
  -15.7508   -8.8969  -24.3498 C   0  0  0  0  0  0
  -14.7324   -7.9659  -24.5440 C   0  0  0  0  0  0
  -15.0046   -6.6560  -24.9439 C   0  0  0  0  0  0
  -16.3451   -6.3025  -25.1437 C   0  0  0  0  0  0
  -17.0529   -4.7760  -25.6586 S   0  0  0  0  0  0
  -22.0789  -10.5220  -30.1047 H   0  0  0  0  0  0
  -23.4425  -11.5810  -29.8017 H   0  0  0  0  0  0
  -23.7275   -9.9444  -30.3784 H   0  0  0  0  0  0
  -22.2989  -10.4322  -27.7604 H   0  0  0  0  0  0
  -24.1828  -10.8785  -26.5433 H   0  0  0  0  0  0
  -25.1959   -9.7862  -27.4811 H   0  0  0  0  0  0
  -24.8723  -11.4021  -28.0726 H   0  0  0  0  0  0
  -23.3700   -8.2082  -27.1891 H   0  0  0  0  0  0
  -23.9029   -8.0321  -28.8126 H   0  0  0  0  0  0
  -20.9488   -8.4814  -28.1105 H   0  0  0  0  0  0
  -20.4218   -8.1017  -30.1364 H   0  0  0  0  0  0
  -20.2564   -7.4998  -32.1228 H   0  0  0  0  0  0
  -20.1466   -5.3234  -32.2896 H   0  0  0  0  0  0
  -21.0912   -3.0408  -33.8493 H   0  0  0  0  0  0
  -20.7501   -3.1650  -32.1440 H   0  0  0  0  0  0
  -23.3546   -2.4204  -33.3850 H   0  0  0  0  0  0
  -21.4912   -2.3788  -30.2011 H   0  0  0  0  0  0
  -22.6399   -2.3484  -28.0627 H   0  0  0  0  0  0
  -25.1161   -2.3757  -27.9863 H   0  0  0  0  0  0
  -26.4156   -2.3689  -30.0771 H   0  0  0  0  0  0
  -25.2733   -2.3454  -32.2551 H   0  0  0  0  0  0
  -22.9679   -7.6059  -33.5088 H   0  0  0  0  0  0
  -22.2924  -10.0298  -33.9539 H   0  0  0  0  0  0
  -20.9955   -9.8195  -32.7955 H   0  0  0  0  0  0
  -22.6794   -9.6651  -32.2987 H   0  0  0  0  0  0
  -21.6650   -8.4644  -35.5165 H   0  0  0  0  0  0
  -21.4910   -6.7725  -35.1808 H   0  0  0  0  0  0
  -20.1943   -7.8913  -34.7345 H   0  0  0  0  0  0
  -21.3860   -7.4100  -26.0614 H   0  0  0  0  0  0
  -21.1975   -5.7895  -24.5851 H   0  0  0  0  0  0
  -23.3456   -4.9146  -25.5350 H   0  0  0  0  0  0
  -22.4513   -3.9358  -26.6295 H   0  0  0  0  0  0
  -21.3953   -2.7762  -24.5029 H   0  0  0  0  0  0
  -24.0526   -2.3917  -25.7553 H   0  0  0  0  0  0
  -22.8267   -1.2050  -25.3436 H   0  0  0  0  0  0
  -25.2212   -1.7862  -23.9087 H   0  0  0  0  0  0
  -23.8915   -0.7750  -23.3380 H   0  0  0  0  0  0
  -24.1780   -2.8868  -21.8637 H   0  0  0  0  0  0
  -17.8819   -9.2685  -24.3902 H   0  0  0  0  0  0
  -15.4965   -9.8995  -24.0399 H   0  0  0  0  0  0
  -13.7046   -8.2663  -24.3943 H   0  0  0  0  0  0
  -14.1994   -5.9549  -25.1137 H   0  0  0  0  0  0
  1  2  1  0  0  0
  1 46  1  0  0  0
  1 47  1  0  0  0
  1 48  1  0  0  0
  2  3  1  0  0  0
  2  4  1  0  0  0
  2 49  1  0  0  0
  3 50  1  0  0  0
  3 51  1  0  0  0
  3 52  1  0  0  0
  4  5  1  0  0  0
  4 53  1  0  0  0
  4 54  1  0  0  0
  5  6  1  0  0  0
  5 24  1  0  0  0
  5 55  1  0  0  0
  6  7  1  0  0  0
  6 56  1  0  0  0
  7  8  2  0  0  0
  7  9  1  0  0  0
  9 10  1  0  0  0
  9 21  1  0  0  0
  9 57  1  0  0  0
 10 11  1  0  0  0
 10 58  1  0  0  0
 11 12  2  0  0  0
 11 13  1  0  0  0
 13 14  1  0  0  0
 13 59  1  0  0  0
 13 60  1  0  0  0
 14 15  1  0  0  0
 14 61  1  0  0  0
 15 20  1  0  0  0
 15 16  2  0  0  0
 16 17  1  0  0  0
 16 62  1  0  0  0
 17 18  2  0  0  0
 17 63  1  0  0  0
 18 19  1  0  0  0
 18 64  1  0  0  0
 19 20  2  0  0  0
 19 65  1  0  0  0
 20 66  1  0  0  0
 21 22  1  0  0  0
 21 23  1  0  0  0
 21 67  1  0  0  0
 22 68  1  0  0  0
 22 69  1  0  0  0
 22 70  1  0  0  0
 23 71  1  0  0  0
 23 72  1  0  0  0
 23 73  1  0  0  0
 24 25  2  0  0  0
 24 26  1  0  0  0
 26 27  1  0  0  0
 26 74  1  0  0  0
 27 28  1  0  0  0
 27 35  1  0  0  0
 27 75  1  0  0  0
 28 29  1  0  0  0
 28 76  1  0  0  0
 28 77  1  0  0  0
 29 33  1  0  0  0
 29 30  1  0  0  0
 29 78  1  0  0  0
 30 31  1  0  0  0
 30 79  1  0  0  0
 30 80  1  0  0  0
 31 32  1  0  0  0
 31 81  1  0  0  0
 31 82  1  0  0  0
 32 33  1  0  0  0
 32 83  1  0  0  0
 33 34  2  0  0  0
 35 36  2  0  0  0
 35 37  1  0  0  0
 37 45  1  0  0  0
 37 38  2  0  0  0
 38 39  1  0  0  0
 39 44  1  0  0  0
 39 40  2  0  0  0
 40 41  1  0  0  0
 40 84  1  0  0  0
 41 42  2  0  0  0
 41 85  1  0  0  0
 42 43  1  0  0  0
 42 86  1  0  0  0
 43 44  2  0  0  0
 43 87  1  0  0  0
 44 45  1  0  0  0
M  END
$$$$
