@<TRIPOS>MOLECULE
*****
 87 90 0 0 0
SMALL
GASTEIGER
****
Schrodinger Suite 2019-4.
@<TRIPOS>ATOM
      1 C         -23.1017  -10.5471  -29.7224 C.3     1  UNL1       -0.0626
      2 C         -23.1631  -10.0196  -28.2813 C.3     1  UNL1       -0.0446
      3 C         -24.4184  -10.5516  -27.5594 C.3     1  UNL1       -0.0626
      4 C         -23.1087   -8.4765  -28.2149 C.3     1  UNL1       -0.0236
      5 C         -21.7197   -7.8443  -28.5285 C.3     1  UNL1        0.0996
      6 N         -21.3718   -7.8150  -29.9531 N.am    1  UNL1       -0.3025
      7 C         -22.0628   -7.2748  -30.9714 C.2     1  UNL1        0.2342
      8 O         -23.2337   -6.9042  -30.9083 O.2     1  UNL1       -0.2738
      9 C         -21.2588   -7.0987  -32.2768 C.3     1  UNL1        0.1017
     10 N         -21.0593   -5.6662  -32.5462 N.am    1  UNL1       -0.3025
     11 C         -21.9672   -4.7542  -32.9449 C.2     1  UNL1        0.2307
     12 O         -23.0910   -5.0478  -33.3437 O.2     1  UNL1       -0.2741
     13 C         -21.5424   -3.2729  -32.8837 C.3     1  UNL1        0.0858
     14 N         -22.6772   -2.4130  -32.6388 N.pl3   1  UNL1       -0.3354
     15 C         -23.2985   -2.3657  -31.3854 C.ar    1  UNL1        0.0275
     16 C         -22.5656   -2.3761  -30.1973 C.ar    1  UNL1       -0.0408
     17 C         -23.2178   -2.3757  -28.9723 C.ar    1  UNL1       -0.0600
     18 C         -24.6064   -2.3820  -28.9376 C.ar    1  UNL1       -0.0616
     19 C         -25.3419   -2.3744  -30.1179 C.ar    1  UNL1       -0.0600
     20 C         -24.6908   -2.3503  -31.3456 C.ar    1  UNL1       -0.0408
     21 C         -21.9344   -7.9373  -33.4085 C.3     1  UNL1       -0.0197
     22 C         -21.9748   -9.4444  -33.0912 C.3     1  UNL1       -0.0605
     23 C         -21.2740   -7.7571  -34.7836 C.3     1  UNL1       -0.0605
     24 C         -21.5358   -6.4700  -27.8485 C.2     1  UNL1        0.2339
     25 O         -21.5020   -5.4378  -28.5181 O.2     1  UNL1       -0.2738
     26 N         -21.4072   -6.5005  -26.5055 N.am    1  UNL1       -0.3037
     27 C         -21.2170   -5.3588  -25.5881 C.3     1  UNL1        0.0888
     28 C         -22.4099   -4.3600  -25.6284 C.3     1  UNL1       -0.0160
     29 C         -22.3961   -3.1961  -24.5983 C.3     1  UNL1        0.0390
     30 C         -23.3628   -2.0784  -24.9701 C.3     1  UNL1       -0.0262
     31 C         -24.1464   -1.7645  -23.7114 C.3     1  UNL1        0.0123
     32 N         -23.7622   -2.8137  -22.7804 N.am    1  UNL1       -0.3151
     33 C         -22.8000   -3.6553  -23.1908 C.2     1  UNL1        0.2162
     34 O         -22.2908   -4.5649  -22.5441 O.2     1  UNL1       -0.2755
     35 C         -19.8340   -4.7308  -25.8381 C.2     1  UNL1        0.2079
     36 O         -19.7288   -3.5751  -26.2525 O.2     1  UNL1       -0.2879
     37 C         -18.6405   -5.5259  -25.5371 C.ar    1  UNL1        0.1465
     38 N         -18.6393   -6.7756  -25.1588 N.ar    1  UNL1       -0.2360
     39 C         -17.3863   -7.2436  -24.9419 C.ar    1  UNL1        0.0790
     40 C         -17.0897   -8.5528  -24.5435 C.ar    1  UNL1       -0.0352
     41 C         -15.7508   -8.8969  -24.3498 C.ar    1  UNL1       -0.0597
     42 C         -14.7324   -7.9659  -24.5440 C.ar    1  UNL1       -0.0606
     43 C         -15.0046   -6.6560  -24.9439 C.ar    1  UNL1       -0.0459
     44 C         -16.3451   -6.3025  -25.1437 C.ar    1  UNL1        0.0396
     45 S         -17.0529   -4.7760  -25.6586 S.2     1  UNL1       -0.0643
     46 H         -22.0789  -10.5220  -30.1047 H       1  UNL1        0.0232
     47 H         -23.4425  -11.5810  -29.8017 H       1  UNL1        0.0232
     48 H         -23.7275   -9.9444  -30.3784 H       1  UNL1        0.0232
     49 H         -22.2989  -10.4322  -27.7604 H       1  UNL1        0.0296
     50 H         -24.1828  -10.8785  -26.5433 H       1  UNL1        0.0232
     51 H         -25.1959   -9.7862  -27.4811 H       1  UNL1        0.0232
     52 H         -24.8723  -11.4021  -28.0726 H       1  UNL1        0.0232
     53 H         -23.3700   -8.2082  -27.1891 H       1  UNL1        0.0290
     54 H         -23.9029   -8.0321  -28.8126 H       1  UNL1        0.0290
     55 H         -20.9488   -8.4814  -28.1105 H       1  UNL1        0.0594
     56 H         -20.4218   -8.1017  -30.1364 H       1  UNL1        0.1495
     57 H         -20.2564   -7.4998  -32.1228 H       1  UNL1        0.0597
     58 H         -20.1466   -5.3234  -32.2896 H       1  UNL1        0.1495
     59 H         -21.0912   -3.0408  -33.8493 H       1  UNL1        0.0557
     60 H         -20.7501   -3.1650  -32.1440 H       1  UNL1        0.0557
     61 H         -23.3546   -2.4204  -33.3850 H       1  UNL1        0.1466
     62 H         -21.4912   -2.3788  -30.2011 H       1  UNL1        0.0636
     63 H         -22.6399   -2.3484  -28.0627 H       1  UNL1        0.0618
     64 H         -25.1161   -2.3757  -27.9863 H       1  UNL1        0.0618
     65 H         -26.4156   -2.3689  -30.0771 H       1  UNL1        0.0618
     66 H         -25.2733   -2.3454  -32.2551 H       1  UNL1        0.0636
     67 H         -22.9679   -7.6059  -33.5088 H       1  UNL1        0.0318
     68 H         -22.2924  -10.0298  -33.9539 H       1  UNL1        0.0233
     69 H         -20.9955   -9.8195  -32.7955 H       1  UNL1        0.0233
     70 H         -22.6794   -9.6651  -32.2987 H       1  UNL1        0.0233
     71 H         -21.6650   -8.4644  -35.5165 H       1  UNL1        0.0233
     72 H         -21.4910   -6.7725  -35.1808 H       1  UNL1        0.0233
     73 H         -20.1943   -7.8913  -34.7345 H       1  UNL1        0.0233
     74 H         -21.3860   -7.4100  -26.0614 H       1  UNL1        0.1495
     75 H         -21.1975   -5.7895  -24.5851 H       1  UNL1        0.0582
     76 H         -23.3456   -4.9146  -25.5350 H       1  UNL1        0.0295
     77 H         -22.4513   -3.9358  -26.6295 H       1  UNL1        0.0295
     78 H         -21.3953   -2.7762  -24.5029 H       1  UNL1        0.0395
     79 H         -24.0526   -2.3917  -25.7553 H       1  UNL1        0.0288
     80 H         -22.8267   -1.2050  -25.3436 H       1  UNL1        0.0288
     81 H         -25.2212   -1.7862  -23.9087 H       1  UNL1        0.0462
     82 H         -23.8915   -0.7750  -23.3380 H       1  UNL1        0.0462
     83 H         -24.1780   -2.8868  -21.8637 H       1  UNL1        0.1487
     84 H         -17.8819   -9.2685  -24.3902 H       1  UNL1        0.0639
     85 H         -15.4965   -9.8995  -24.0399 H       1  UNL1        0.0618
     86 H         -13.7046   -8.2663  -24.3943 H       1  UNL1        0.0618
     87 H         -14.1994   -5.9549  -25.1137 H       1  UNL1        0.0629
@<TRIPOS>BOND
     1     1     2    1
     2     1    46    1
     3     1    47    1
     4     1    48    1
     5     2     3    1
     6     2     4    1
     7     2    49    1
     8     3    50    1
     9     3    51    1
    10     3    52    1
    11     4     5    1
    12     4    53    1
    13     4    54    1
    14     5     6    1
    15     5    24    1
    16     5    55    1
    17     6     7   am
    18     6    56    1
    19     7     8    2
    20     7     9    1
    21     9    10    1
    22     9    21    1
    23     9    57    1
    24    10    11   am
    25    10    58    1
    26    11    12    2
    27    11    13    1
    28    13    14    1
    29    13    59    1
    30    13    60    1
    31    14    15    1
    32    14    61    1
    33    15    20   ar
    34    15    16   ar
    35    16    17   ar
    36    16    62    1
    37    17    18   ar
    38    17    63    1
    39    18    19   ar
    40    18    64    1
    41    19    20   ar
    42    19    65    1
    43    20    66    1
    44    21    22    1
    45    21    23    1
    46    21    67    1
    47    22    68    1
    48    22    69    1
    49    22    70    1
    50    23    71    1
    51    23    72    1
    52    23    73    1
    53    24    25    2
    54    24    26   am
    55    26    27    1
    56    26    74    1
    57    27    28    1
    58    27    35    1
    59    27    75    1
    60    28    29    1
    61    28    76    1
    62    28    77    1
    63    29    33    1
    64    29    30    1
    65    29    78    1
    66    30    31    1
    67    30    79    1
    68    30    80    1
    69    31    32    1
    70    31    81    1
    71    31    82    1
    72    32    33   am
    73    32    83    1
    74    33    34    2
    75    35    36    2
    76    35    37    1
    77    37    45   ar
    78    37    38   ar
    79    38    39   ar
    80    39    44   ar
    81    39    40   ar
    82    40    41   ar
    83    40    84    1
    84    41    42   ar
    85    41    85    1
    86    42    43   ar
    87    42    86    1
    88    43    44   ar
    89    43    87    1
    90    44    45   ar
