
                    3D
 Schrodinger Suite 2019-4.
 79 82  0  0  1  0            999 V2000
  -19.0994   -5.4737  -29.7267 O   0  0  0  0  0  0
  -20.0728   -5.7845  -30.4140 C   0  0  0  0  0  0
  -21.3014   -5.2910  -30.2167 N   0  0  0  0  0  0
  -21.6611   -4.3391  -29.1762 C   0  0  1  0  0  0
  -23.1373   -3.9510  -29.3276 C   0  0  0  0  0  0
  -23.3660   -3.0340  -30.5199 C   0  0  0  0  0  0
  -22.7611   -1.6512  -30.3460 C   0  0  0  0  0  0
  -23.4496   -0.8679  -31.4294 C   0  0  0  0  0  0
  -24.8899   -1.3828  -31.4463 C   0  0  0  0  0  0
  -24.8386   -2.7498  -30.7733 C   0  0  0  0  0  0
  -21.4779   -4.9182  -27.7812 C   0  0  0  0  0  0
  -21.9612   -6.0075  -27.4767 O   0  0  0  0  0  0
  -20.8258   -4.1255  -26.9326 N   0  0  0  0  0  0
  -20.7633   -4.3306  -25.4975 C   0  0  1  0  0  0
  -19.2817   -4.1542  -25.0765 C   0  0  0  0  0  0
  -18.3973   -5.2622  -25.7073 C   0  0  2  0  0  0
  -18.7644   -6.6848  -25.2596 C   0  0  0  0  0  0
  -17.4370   -7.4416  -25.1390 C   0  0  0  0  0  0
  -16.4399   -6.3970  -25.0614 N   0  0  0  0  0  0
  -16.9162   -5.1937  -25.3666 C   0  0  0  0  0  0
  -16.2508   -4.1678  -25.4209 O   0  0  0  0  0  0
  -21.7366   -3.3135  -24.8704 C   0  0  0  0  0  0
  -22.3332   -2.4562  -25.5236 O   0  0  0  0  0  0
  -22.0622   -3.4719  -23.3962 C   0  0  0  0  0  0
  -21.2017   -3.5753  -22.5271 O   0  0  0  0  0  0
  -23.3878   -3.5237  -23.2144 N   0  0  0  0  0  0
  -24.0458   -4.0230  -22.0239 C   0  0  0  0  0  0
  -24.0443   -5.5440  -21.9259 C   0  0  0  0  0  0
  -23.7486   -6.3689  -23.0398 C   0  0  0  0  0  0
  -23.7838   -7.7701  -22.9198 C   0  0  0  0  0  0
  -24.1278   -8.3606  -21.6902 C   0  0  0  0  0  0
  -24.4178   -7.5485  -20.5774 C   0  0  0  0  0  0
  -24.3747   -6.1462  -20.6956 C   0  0  0  0  0  0
  -20.0733   -6.7209  -31.5150 C   0  0  0  0  0  0
  -19.0499   -7.5806  -31.6626 C   0  0  0  0  0  0
  -18.9127   -8.5773  -32.7280 C   0  0  0  0  0  0
  -19.9701   -8.8898  -33.6132 C   0  0  0  0  0  0
  -19.7838   -9.8394  -34.6351 C   0  0  0  0  0  0
  -18.5393  -10.4799  -34.7824 C   0  0  0  0  0  0
  -17.4787  -10.1663  -33.9116 C   0  0  0  0  0  0
  -17.6657   -9.2165  -32.8902 C   0  0  0  0  0  0
  -22.0463   -5.6164  -30.8138 H   0  0  0  0  0  0
  -21.0243   -3.4605  -29.2794 H   0  0  0  0  0  0
  -23.4943   -3.4449  -28.4273 H   0  0  0  0  0  0
  -23.7517   -4.8481  -29.4309 H   0  0  0  0  0  0
  -22.9519   -3.4871  -31.4229 H   0  0  0  0  0  0
  -21.6866   -1.6300  -30.4709 H   0  0  0  0  0  0
  -22.9990   -1.2415  -29.3661 H   0  0  0  0  0  0
  -22.9612   -1.1392  -32.3627 H   0  0  0  0  0  0
  -23.3525    0.2004  -31.2550 H   0  0  0  0  0  0
  -25.2899   -1.4753  -32.4503 H   0  0  0  0  0  0
  -25.5464   -0.7127  -30.9025 H   0  0  0  0  0  0
  -25.3915   -2.7149  -29.8340 H   0  0  0  0  0  0
  -25.2680   -3.5265  -31.4014 H   0  0  0  0  0  0
  -20.4761   -3.2435  -27.2820 H   0  0  0  0  0  0
  -21.1025   -5.3299  -25.2201 H   0  0  0  0  0  0
  -19.1790   -4.1939  -23.9918 H   0  0  0  0  0  0
  -18.9110   -3.1753  -25.3828 H   0  0  0  0  0  0
  -18.4429   -5.2086  -26.7958 H   0  0  0  0  0  0
  -19.4506   -7.1723  -25.9526 H   0  0  0  0  0  0
  -19.2510   -6.6521  -24.2844 H   0  0  0  0  0  0
  -17.2465   -8.0538  -26.0215 H   0  0  0  0  0  0
  -17.4082   -8.0829  -24.2577 H   0  0  0  0  0  0
  -15.4669   -6.5851  -24.8535 H   0  0  0  0  0  0
  -23.9741   -3.4023  -24.0304 H   0  0  0  0  0  0
  -25.0806   -3.6800  -22.0409 H   0  0  0  0  0  0
  -23.5917   -3.5810  -21.1396 H   0  0  0  0  0  0
  -23.5041   -5.9481  -24.0027 H   0  0  0  0  0  0
  -23.5567   -8.3917  -23.7733 H   0  0  0  0  0  0
  -24.1612   -9.4366  -21.5987 H   0  0  0  0  0  0
  -24.6789   -8.0029  -19.6322 H   0  0  0  0  0  0
  -24.6074   -5.5305  -19.8399 H   0  0  0  0  0  0
  -20.8961   -6.7138  -32.2139 H   0  0  0  0  0  0
  -18.2454   -7.5670  -30.9409 H   0  0  0  0  0  0
  -20.9367   -8.4199  -33.5206 H   0  0  0  0  0  0
  -20.5961  -10.0753  -35.3070 H   0  0  0  0  0  0
  -18.3956  -11.2064  -35.5690 H   0  0  0  0  0  0
  -16.5201  -10.6496  -34.0309 H   0  0  0  0  0  0
  -16.8416   -8.9758  -32.2344 H   0  0  0  0  0  0
  1  2  2  0  0  0
  2  3  1  0  0  0
  2 34  1  0  0  0
  3  4  1  0  0  0
  3 42  1  0  0  0
  4  5  1  0  0  0
  4 11  1  0  0  0
  4 43  1  0  0  0
  5  6  1  0  0  0
  5 44  1  0  0  0
  5 45  1  0  0  0
  6 10  1  0  0  0
  6  7  1  0  0  0
  6 46  1  0  0  0
  7  8  1  0  0  0
  7 47  1  0  0  0
  7 48  1  0  0  0
  8  9  1  0  0  0
  8 49  1  0  0  0
  8 50  1  0  0  0
  9 10  1  0  0  0
  9 51  1  0  0  0
  9 52  1  0  0  0
 10 53  1  0  0  0
 10 54  1  0  0  0
 11 12  2  0  0  0
 11 13  1  0  0  0
 13 14  1  0  0  0
 13 55  1  0  0  0
 14 15  1  0  0  0
 14 22  1  0  0  0
 14 56  1  0  0  0
 15 16  1  0  0  0
 15 57  1  0  0  0
 15 58  1  0  0  0
 16 20  1  0  0  0
 16 17  1  0  0  0
 16 59  1  0  0  0
 17 18  1  0  0  0
 17 60  1  0  0  0
 17 61  1  0  0  0
 18 19  1  0  0  0
 18 62  1  0  0  0
 18 63  1  0  0  0
 19 20  1  0  0  0
 19 64  1  0  0  0
 20 21  2  0  0  0
 22 23  2  0  0  0
 22 24  1  0  0  0
 24 25  2  0  0  0
 24 26  1  0  0  0
 26 27  1  0  0  0
 26 65  1  0  0  0
 27 28  1  0  0  0
 27 66  1  0  0  0
 27 67  1  0  0  0
 28 33  1  0  0  0
 28 29  2  0  0  0
 29 30  1  0  0  0
 29 68  1  0  0  0
 30 31  2  0  0  0
 30 69  1  0  0  0
 31 32  1  0  0  0
 31 70  1  0  0  0
 32 33  2  0  0  0
 32 71  1  0  0  0
 33 72  1  0  0  0
 34 35  2  0  0  0
 34 73  1  0  0  0
 35 36  1  0  0  0
 35 74  1  0  0  0
 36 41  1  0  0  0
 36 37  2  0  0  0
 37 38  1  0  0  0
 37 75  1  0  0  0
 38 39  2  0  0  0
 38 76  1  0  0  0
 39 40  1  0  0  0
 39 77  1  0  0  0
 40 41  2  0  0  0
 40 78  1  0  0  0
 41 79  1  0  0  0
M  END
$$$$
