@<TRIPOS>MOLECULE
*****
 79 82 0 0 0
SMALL
GASTEIGER
****
Schrodinger Suite 2019-4.
@<TRIPOS>ATOM
      1 O         -19.0994   -5.4737  -29.7267 O.2     1  UNL1       -0.2708
      2 C         -20.0728   -5.7845  -30.4140 C.2     1  UNL1        0.2375
      3 N         -21.3014   -5.2910  -30.2167 N.am    1  UNL1       -0.3005
      4 C         -21.6611   -4.3391  -29.1762 C.3     1  UNL1        0.0999
      5 C         -23.1373   -3.9510  -29.3276 C.3     1  UNL1       -0.0231
      6 C         -23.3660   -3.0340  -30.5199 C.3     1  UNL1       -0.0389
      7 C         -22.7611   -1.6512  -30.3460 C.3     1  UNL1       -0.0501
      8 C         -23.4496   -0.8679  -31.4294 C.3     1  UNL1       -0.0528
      9 C         -24.8899   -1.3828  -31.4463 C.3     1  UNL1       -0.0528
     10 C         -24.8386   -2.7498  -30.7733 C.3     1  UNL1       -0.0501
     11 C         -21.4779   -4.9182  -27.7812 C.2     1  UNL1        0.2339
     12 O         -21.9612   -6.0075  -27.4767 O.2     1  UNL1       -0.2738
     13 N         -20.8258   -4.1255  -26.9326 N.am    1  UNL1       -0.3036
     14 C         -20.7633   -4.3306  -25.4975 C.3     1  UNL1        0.0914
     15 C         -19.2817   -4.1542  -25.0765 C.3     1  UNL1       -0.0159
     16 C         -18.3973   -5.2622  -25.7073 C.3     1  UNL1        0.0390
     17 C         -18.7644   -6.6848  -25.2596 C.3     1  UNL1       -0.0262
     18 C         -17.4370   -7.4416  -25.1390 C.3     1  UNL1        0.0123
     19 N         -16.4399   -6.3970  -25.0614 N.am    1  UNL1       -0.3151
     20 C         -16.9162   -5.1937  -25.3666 C.2     1  UNL1        0.2162
     21 O         -16.2508   -4.1678  -25.4209 O.2     1  UNL1       -0.2755
     22 C         -21.7366   -3.3135  -24.8704 C.2     1  UNL1        0.2372
     23 O         -22.3332   -2.4562  -25.5236 O.2     1  UNL1       -0.2852
     24 C         -22.0622   -3.4719  -23.3962 C.2     1  UNL1        0.2817
     25 O         -21.2017   -3.5753  -22.5271 O.2     1  UNL1       -0.2670
     26 N         -23.3878   -3.5237  -23.2144 N.am    1  UNL1       -0.3048
     27 C         -24.0458   -4.0230  -22.0239 C.3     1  UNL1        0.0372
     28 C         -24.0443   -5.5440  -21.9259 C.ar    1  UNL1       -0.0303
     29 C         -23.7486   -6.3689  -23.0398 C.ar    1  UNL1       -0.0571
     30 C         -23.7838   -7.7701  -22.9198 C.ar    1  UNL1       -0.0615
     31 C         -24.1278   -8.3606  -21.6902 C.ar    1  UNL1       -0.0617
     32 C         -24.4178   -7.5485  -20.5774 C.ar    1  UNL1       -0.0615
     33 C         -24.3747   -6.1462  -20.6956 C.ar    1  UNL1       -0.0571
     34 C         -20.0733   -6.7209  -31.5150 C.2     1  UNL1        0.0007
     35 C         -19.0499   -7.5806  -31.6626 C.2     1  UNL1       -0.0497
     36 C         -18.9127   -8.5773  -32.7280 C.ar    1  UNL1       -0.0249
     37 C         -19.9701   -8.8898  -33.6132 C.ar    1  UNL1       -0.0546
     38 C         -19.7838   -9.8394  -34.6351 C.ar    1  UNL1       -0.0612
     39 C         -18.5393  -10.4799  -34.7824 C.ar    1  UNL1       -0.0617
     40 C         -17.4787  -10.1663  -33.9116 C.ar    1  UNL1       -0.0612
     41 C         -17.6657   -9.2165  -32.8902 C.ar    1  UNL1       -0.0546
     42 H         -22.0463   -5.6164  -30.8138 H       1  UNL1        0.1498
     43 H         -21.0243   -3.4605  -29.2794 H       1  UNL1        0.0595
     44 H         -23.4943   -3.4449  -28.4273 H       1  UNL1        0.0290
     45 H         -23.7517   -4.8481  -29.4309 H       1  UNL1        0.0290
     46 H         -22.9519   -3.4871  -31.4229 H       1  UNL1        0.0301
     47 H         -21.6866   -1.6300  -30.4709 H       1  UNL1        0.0268
     48 H         -22.9990   -1.2415  -29.3661 H       1  UNL1        0.0268
     49 H         -22.9612   -1.1392  -32.3627 H       1  UNL1        0.0265
     50 H         -23.3525    0.2004  -31.2550 H       1  UNL1        0.0265
     51 H         -25.2899   -1.4753  -32.4503 H       1  UNL1        0.0265
     52 H         -25.5464   -0.7127  -30.9025 H       1  UNL1        0.0265
     53 H         -25.3915   -2.7149  -29.8340 H       1  UNL1        0.0268
     54 H         -25.2680   -3.5265  -31.4014 H       1  UNL1        0.0268
     55 H         -20.4761   -3.2435  -27.2820 H       1  UNL1        0.1495
     56 H         -21.1025   -5.3299  -25.2201 H       1  UNL1        0.0583
     57 H         -19.1790   -4.1939  -23.9918 H       1  UNL1        0.0295
     58 H         -18.9110   -3.1753  -25.3828 H       1  UNL1        0.0295
     59 H         -18.4429   -5.2086  -26.7958 H       1  UNL1        0.0395
     60 H         -19.4506   -7.1723  -25.9526 H       1  UNL1        0.0288
     61 H         -19.2510   -6.6521  -24.2844 H       1  UNL1        0.0288
     62 H         -17.2465   -8.0538  -26.0215 H       1  UNL1        0.0462
     63 H         -17.4082   -8.0829  -24.2577 H       1  UNL1        0.0462
     64 H         -15.4669   -6.5851  -24.8535 H       1  UNL1        0.1487
     65 H         -23.9741   -3.4023  -24.0304 H       1  UNL1        0.1494
     66 H         -25.0806   -3.6800  -22.0409 H       1  UNL1        0.0512
     67 H         -23.5917   -3.5810  -21.1396 H       1  UNL1        0.0512
     68 H         -23.5041   -5.9481  -24.0027 H       1  UNL1        0.0621
     69 H         -23.5567   -8.3917  -23.7733 H       1  UNL1        0.0618
     70 H         -24.1612   -9.4366  -21.5987 H       1  UNL1        0.0618
     71 H         -24.6789   -8.0029  -19.6322 H       1  UNL1        0.0618
     72 H         -24.6074   -5.5305  -19.8399 H       1  UNL1        0.0621
     73 H         -20.8961   -6.7138  -32.2139 H       1  UNL1        0.0669
     74 H         -18.2454   -7.5670  -30.9409 H       1  UNL1        0.0625
     75 H         -20.9367   -8.4199  -33.5206 H       1  UNL1        0.0623
     76 H         -20.5961  -10.0753  -35.3070 H       1  UNL1        0.0618
     77 H         -18.3956  -11.2064  -35.5690 H       1  UNL1        0.0618
     78 H         -16.5201  -10.6496  -34.0309 H       1  UNL1        0.0618
     79 H         -16.8416   -8.9758  -32.2344 H       1  UNL1        0.0623
@<TRIPOS>BOND
     1     1     2    2
     2     2     3   am
     3     2    34    1
     4     3     4    1
     5     3    42    1
     6     4     5    1
     7     4    11    1
     8     4    43    1
     9     5     6    1
    10     5    44    1
    11     5    45    1
    12     6    10    1
    13     6     7    1
    14     6    46    1
    15     7     8    1
    16     7    47    1
    17     7    48    1
    18     8     9    1
    19     8    49    1
    20     8    50    1
    21     9    10    1
    22     9    51    1
    23     9    52    1
    24    10    53    1
    25    10    54    1
    26    11    12    2
    27    11    13   am
    28    13    14    1
    29    13    55    1
    30    14    15    1
    31    14    22    1
    32    14    56    1
    33    15    16    1
    34    15    57    1
    35    15    58    1
    36    16    20    1
    37    16    17    1
    38    16    59    1
    39    17    18    1
    40    17    60    1
    41    17    61    1
    42    18    19    1
    43    18    62    1
    44    18    63    1
    45    19    20   am
    46    19    64    1
    47    20    21    2
    48    22    23    2
    49    22    24    1
    50    24    25    2
    51    24    26   am
    52    26    27    1
    53    26    65    1
    54    27    28    1
    55    27    66    1
    56    27    67    1
    57    28    33   ar
    58    28    29   ar
    59    29    30   ar
    60    29    68    1
    61    30    31   ar
    62    30    69    1
    63    31    32   ar
    64    31    70    1
    65    32    33   ar
    66    32    71    1
    67    33    72    1
    68    34    35    2
    69    34    73    1
    70    35    36    1
    71    35    74    1
    72    36    41   ar
    73    36    37   ar
    74    37    38   ar
    75    37    75    1
    76    38    39   ar
    77    38    76    1
    78    39    40   ar
    79    39    77    1
    80    40    41   ar
    81    40    78    1
    82    41    79    1
