@<TRIPOS>MOLECULE
/home/lixiaoshuang.lxs/med/data/m_pro/PDB_BA/3snb/3snb_ligand.pdb
 45 45 0 0 0
SMALL
GASTEIGER

@<TRIPOS>ATOM
      1  C         21.6180   10.6720   20.2590 C.2     0  ACE0        0.2423
      2  O         20.8950   11.1670   19.3840 O.2     0  ACE0       -0.2733
      3  CH3       22.9360   11.3100   20.6420 C.3     0  ACE0        0.0964
      4  N         21.2650    9.5830   20.9510 N.am    1  ASP1       -0.1972
      5  CA        21.4340    8.4150   20.4010 C.3     1  ASP1        0.1839
      6  C         20.1270    7.6470   20.5850 C.2     1  ASP1        0.2623
      7  O         19.2950    8.0080   21.4240 O.2     1  ASP1       -0.2715
      8  CB        22.5510    7.7450   21.2180 C.3     1  ASP1        0.1450
      9  CG        23.9330    7.8750   20.5670 C.2     1  ASP1        0.3671
     10  OD1       24.0180    8.0850   19.3340 O.co2   1  ASP1       -0.2456
     11  OD2       24.9400    7.7500   21.2990 O.co2   1  ASP1       -0.2456
     12  N         19.9570    6.5910   19.7900 N.am    2  SER2       -0.1936
     13  CA        18.8150    5.6700   19.8960 C.3     2  SER2        0.2055
     14  C         19.1200    4.4900   20.8360 C.2     2  SER2        0.2643
     15  O         20.2550    4.3400   21.2940 O.2     2  SER2       -0.2714
     16  CB        18.4350    5.1540   18.5050 C.3     2  SER2        0.2130
     17  OG        19.5860    4.7650   17.7700 O.3     2  SER2       -0.2179
     18  N         18.1120    3.6580   21.1250 N.am    3  PHE3       -0.1959
     19  CA        18.2900    2.5280   22.0520 C.3     3  PHE3        0.1771
     20  C         17.4530    1.2990   21.6860 C.2     3  PHE3        0.2620
     21  O         16.2200    1.3260   21.7610 O.2     3  PHE3       -0.2715
     22  CB        17.9980    2.9500   23.5040 C.3     3  PHE3        0.0574
     23  CG        18.8110    2.2010   24.5420 C.ar    3  PHE3       -0.0200
     24  CD1       19.7300    2.8800   25.3450 C.ar    3  PHE3       -0.0042
     25  CD2       18.6600    0.8240   24.7230 C.ar    3  PHE3       -0.0042
     26  CE1       20.4830    2.2000   26.3140 C.ar    3  PHE3       -0.0003
     27  CE2       19.4170    0.1400   25.6810 C.ar    3  PHE3       -0.0003
     28  CZ        20.3270    0.8310   26.4780 C.ar    3  PHE3       -0.0000
     29  N         18.1470    0.2190   21.3260 N.am    4  ASP4       -0.1957
     30  CA        17.5190   -1.0450   20.9330 C.3     4  ASP4        0.1840
     31  C         17.0170   -1.8520   22.1410 C.2     4  ASP4        0.2621
     32  O         17.2090   -3.0740   22.2180 O.2     4  ASP4       -0.2715
     33  CB        18.4880   -1.8810   20.0750 C.3     4  ASP4        0.1450
     34  CG        18.6960   -1.3030   18.6670 C.2     4  ASP4        0.3671
     35  OD1       17.7100   -1.1260   17.9140 O.co2   4  ASP4       -0.2456
     36  OD2       19.8620   -1.0490   18.3010 O.co2   4  ASP4       -0.2456
     37  C         14.4920   -3.6710   23.8330 C.2     5  ECC5        0.2287
     38  N         15.9100   -1.9180   22.8810 N.am    5  ECC5       -0.1977
     39  O         15.2790   -4.6070   23.8130 O.2     5  ECC5       -0.2864
     40  CA        14.9540   -2.2240   23.9370 C.3     5  ECC5        0.1601
     41  CB        13.7310   -1.3140   23.8000 C.3     5  ECC5        0.0394
     42  CD        12.5080    0.6980   24.4640 C.2     5  ECC5        0.2608
     43  CG        13.8950    0.0810   24.4050 C.3     5  ECC5        0.0908
     44  OE1       11.8350    0.8240   23.4480 O.2     5  ECC5       -0.2717
     45  NE2       12.0720    1.0670   25.6670 N.am    5  ECC5       -0.0878
@<TRIPOS>BOND
     1    17    16    1
     2    35    34   ar
     3    36    34   ar
     4    16    13    1
     5    34    33    1
     6    10     9   ar
     7     2     1    2
     8    12    13    1
     9    12     6   am
    10    13    14    1
    11    33    30    1
    12     1     3    1
    13     1     4   am
    14     5     6    1
    15     5     4    1
    16     5     8    1
    17     9     8    1
    18     9    11   ar
    19     6     7    2
    20    14    18   am
    21    14    15    2
    22    30    29    1
    23    30    31    1
    24    18    19    1
    25    29    20   am
    26    20    21    2
    27    20    19    1
    28    19    22    1
    29    31    32    2
    30    31    38   am
    31    38    40    1
    32    44    42    2
    33    22    23    1
    34    41    40    1
    35    41    43    1
    36    39    37    2
    37    37    40    1
    38    43    42    1
    39    42    45   am
    40    23    25   ar
    41    23    24   ar
    42    25    27   ar
    43    24    26   ar
    44    27    28   ar
    45    26    28   ar
