
                    3D
 Schrodinger Suite 2019-4.
 75 77  0  0  1  0            999 V2000
  -24.3666   -3.1038  -32.0479 C   0  0  0  0  0  0
  -22.9832   -3.0727  -31.3858 C   0  0  0  0  0  0
  -21.9453   -3.4534  -32.4561 C   0  0  0  0  0  0
  -22.9821   -3.9198  -30.0754 C   0  0  0  0  0  0
  -21.5987   -4.3098  -29.4714 C   0  0  2  0  0  0
  -21.0330   -5.3689  -30.3046 N   0  0  0  0  0  0
  -19.7895   -5.8675  -30.2296 C   0  0  0  0  0  0
  -18.9434   -5.4506  -29.4409 O   0  0  0  0  0  0
  -19.5053   -6.8930  -31.1996 C   0  0  0  0  0  0
  -20.3607   -7.8938  -31.5084 C   0  0  0  0  0  0
  -20.1407   -8.9329  -32.5341 C   0  0  0  0  0  0
  -19.1592   -8.8026  -33.5258 C   0  0  0  0  0  0
  -18.9939   -9.7981  -34.4854 C   0  0  0  0  0  0
  -19.8011  -10.9300  -34.4520 C   0  0  0  0  0  0
  -20.7706  -11.0773  -33.4642 C   0  0  0  0  0  0
  -20.9422  -10.0783  -32.5092 C   0  0  0  0  0  0
  -21.7029   -4.8119  -28.0078 C   0  0  0  0  0  0
  -22.3951   -5.8010  -27.7503 O   0  0  0  0  0  0
  -20.9871   -4.1437  -27.0837 N   0  0  0  0  0  0
  -20.9263   -4.4536  -25.6393 C   0  0  1  0  0  0
  -19.4623   -4.3646  -25.1140 C   0  0  0  0  0  0
  -18.5330   -5.4902  -25.6686 C   0  0  2  0  0  0
  -18.8396   -6.8930  -25.1587 C   0  0  0  0  0  0
  -17.4826   -7.5756  -25.0952 C   0  0  0  0  0  0
  -16.5558   -6.4601  -24.9596 N   0  0  0  0  0  0
  -17.0560   -5.2622  -25.3023 C   0  0  0  0  0  0
  -16.4452   -4.2021  -25.3573 O   0  0  0  0  0  0
  -21.9086   -3.4918  -24.9491 C   0  0  0  0  0  0
  -22.5430   -2.6036  -25.5232 O   0  0  0  0  0  0
  -22.2259   -3.7548  -23.4265 C   0  0  0  0  0  0
  -21.3466   -3.8040  -22.5652 O   0  0  0  0  0  0
  -23.5508   -3.8667  -23.2236 N   0  0  0  0  0  0
  -24.1821   -4.2273  -21.9549 C   0  0  0  0  0  0
  -24.2973   -5.7268  -21.6763 C   0  0  0  0  0  0
  -24.0124   -6.6956  -22.6499 C   0  0  0  0  0  0
  -24.1417   -8.0489  -22.3504 C   0  0  0  0  0  0
  -24.5450   -8.4393  -21.0770 C   0  0  0  0  0  0
  -24.8238   -7.4880  -20.1002 C   0  0  0  0  0  0
  -24.7007   -6.1340  -20.4017 C   0  0  0  0  0  0
  -25.1507   -2.7735  -31.3650 H   0  0  0  0  0  0
  -24.3976   -2.4785  -32.9428 H   0  0  0  0  0  0
  -24.5872   -4.1214  -32.3677 H   0  0  0  0  0  0
  -22.7740   -2.0392  -31.1039 H   0  0  0  0  0  0
  -20.9442   -3.1617  -32.1523 H   0  0  0  0  0  0
  -21.9489   -4.5189  -32.6747 H   0  0  0  0  0  0
  -22.1407   -2.9385  -33.3964 H   0  0  0  0  0  0
  -23.5677   -4.8300  -30.2282 H   0  0  0  0  0  0
  -23.5500   -3.3553  -29.3331 H   0  0  0  0  0  0
  -20.9457   -3.4341  -29.4937 H   0  0  0  0  0  0
  -21.6670   -5.7648  -30.9791 H   0  0  0  0  0  0
  -18.5432   -6.8034  -31.6723 H   0  0  0  0  0  0
  -21.3075   -7.9569  -30.9861 H   0  0  0  0  0  0
  -18.5220   -7.9315  -33.5703 H   0  0  0  0  0  0
  -18.2418   -9.6895  -35.2544 H   0  0  0  0  0  0
  -19.6681  -11.7025  -35.1946 H   0  0  0  0  0  0
  -21.3845  -11.9652  -33.4369 H   0  0  0  0  0  0
  -21.6979  -10.2057  -31.7466 H   0  0  0  0  0  0
  -20.4532   -3.3371  -27.3799 H   0  0  0  0  0  0
  -21.2839   -5.4712  -25.4624 H   0  0  0  0  0  0
  -19.4285   -4.4148  -24.0252 H   0  0  0  0  0  0
  -19.0524   -3.3846  -25.3717 H   0  0  0  0  0  0
  -18.5672   -5.4703  -26.7584 H   0  0  0  0  0  0
  -19.5527   -7.4364  -25.7781 H   0  0  0  0  0  0
  -19.2676   -6.8454  -24.1552 H   0  0  0  0  0  0
  -17.2577   -8.1380  -26.0041 H   0  0  0  0  0  0
  -17.4122   -8.2546  -24.2445 H   0  0  0  0  0  0
  -15.5631   -6.6004  -24.8019 H   0  0  0  0  0  0
  -24.1752   -3.8042  -24.0250 H   0  0  0  0  0  0
  -25.1873   -3.8053  -21.9384 H   0  0  0  0  0  0
  -23.6555   -3.7540  -21.1237 H   0  0  0  0  0  0
  -23.7012   -6.4139  -23.6458 H   0  0  0  0  0  0
  -23.9234   -8.7903  -23.1054 H   0  0  0  0  0  0
  -24.6456   -9.4902  -20.8448 H   0  0  0  0  0  0
  -25.1367   -7.7991  -19.1144 H   0  0  0  0  0  0
  -24.9251   -5.3983  -19.6466 H   0  0  0  0  0  0
  1  2  1  0  0  0
  1 40  1  0  0  0
  1 41  1  0  0  0
  1 42  1  0  0  0
  2  3  1  0  0  0
  2  4  1  0  0  0
  2 43  1  0  0  0
  3 44  1  0  0  0
  3 45  1  0  0  0
  3 46  1  0  0  0
  4  5  1  0  0  0
  4 47  1  0  0  0
  4 48  1  0  0  0
  5  6  1  0  0  0
  5 17  1  0  0  0
  5 49  1  0  0  0
  6  7  1  0  0  0
  6 50  1  0  0  0
  7  8  2  0  0  0
  7  9  1  0  0  0
  9 10  2  0  0  0
  9 51  1  0  0  0
 10 11  1  0  0  0
 10 52  1  0  0  0
 11 16  1  0  0  0
 11 12  2  0  0  0
 12 13  1  0  0  0
 12 53  1  0  0  0
 13 14  2  0  0  0
 13 54  1  0  0  0
 14 15  1  0  0  0
 14 55  1  0  0  0
 15 16  2  0  0  0
 15 56  1  0  0  0
 16 57  1  0  0  0
 17 18  2  0  0  0
 17 19  1  0  0  0
 19 20  1  0  0  0
 19 58  1  0  0  0
 20 21  1  0  0  0
 20 28  1  0  0  0
 20 59  1  0  0  0
 21 22  1  0  0  0
 21 60  1  0  0  0
 21 61  1  0  0  0
 22 26  1  0  0  0
 22 23  1  0  0  0
 22 62  1  0  0  0
 23 24  1  0  0  0
 23 63  1  0  0  0
 23 64  1  0  0  0
 24 25  1  0  0  0
 24 65  1  0  0  0
 24 66  1  0  0  0
 25 26  1  0  0  0
 25 67  1  0  0  0
 26 27  2  0  0  0
 28 29  2  0  0  0
 28 30  1  0  0  0
 30 31  2  0  0  0
 30 32  1  0  0  0
 32 33  1  0  0  0
 32 68  1  0  0  0
 33 34  1  0  0  0
 33 69  1  0  0  0
 33 70  1  0  0  0
 34 39  1  0  0  0
 34 35  2  0  0  0
 35 36  1  0  0  0
 35 71  1  0  0  0
 36 37  2  0  0  0
 36 72  1  0  0  0
 37 38  1  0  0  0
 37 73  1  0  0  0
 38 39  2  0  0  0
 38 74  1  0  0  0
 39 75  1  0  0  0
M  END
$$$$
