@<TRIPOS>MOLECULE
*****
 75 77 0 0 0
SMALL
GASTEIGER
****
Schrodinger Suite 2019-4.
@<TRIPOS>ATOM
      1 C         -24.3666   -3.1038  -32.0479 C.3     1  UNL1       -0.0626
      2 C         -22.9832   -3.0727  -31.3858 C.3     1  UNL1       -0.0446
      3 C         -21.9453   -3.4534  -32.4561 C.3     1  UNL1       -0.0626
      4 C         -22.9821   -3.9198  -30.0754 C.3     1  UNL1       -0.0236
      5 C         -21.5987   -4.3098  -29.4714 C.3     1  UNL1        0.0999
      6 N         -21.0330   -5.3689  -30.3046 N.am    1  UNL1       -0.3005
      7 C         -19.7895   -5.8675  -30.2296 C.2     1  UNL1        0.2375
      8 O         -18.9434   -5.4506  -29.4409 O.2     1  UNL1       -0.2708
      9 C         -19.5053   -6.8930  -31.1996 C.2     1  UNL1        0.0007
     10 C         -20.3607   -7.8938  -31.5084 C.2     1  UNL1       -0.0497
     11 C         -20.1407   -8.9329  -32.5341 C.ar    1  UNL1       -0.0249
     12 C         -19.1592   -8.8026  -33.5258 C.ar    1  UNL1       -0.0546
     13 C         -18.9939   -9.7981  -34.4854 C.ar    1  UNL1       -0.0612
     14 C         -19.8011  -10.9300  -34.4520 C.ar    1  UNL1       -0.0617
     15 C         -20.7706  -11.0773  -33.4642 C.ar    1  UNL1       -0.0612
     16 C         -20.9422  -10.0783  -32.5092 C.ar    1  UNL1       -0.0546
     17 C         -21.7029   -4.8119  -28.0078 C.2     1  UNL1        0.2339
     18 O         -22.3951   -5.8010  -27.7503 O.2     1  UNL1       -0.2738
     19 N         -20.9871   -4.1437  -27.0837 N.am    1  UNL1       -0.3036
     20 C         -20.9263   -4.4536  -25.6393 C.3     1  UNL1        0.0914
     21 C         -19.4623   -4.3646  -25.1140 C.3     1  UNL1       -0.0159
     22 C         -18.5330   -5.4902  -25.6686 C.3     1  UNL1        0.0390
     23 C         -18.8396   -6.8930  -25.1587 C.3     1  UNL1       -0.0262
     24 C         -17.4826   -7.5756  -25.0952 C.3     1  UNL1        0.0123
     25 N         -16.5558   -6.4601  -24.9596 N.am    1  UNL1       -0.3151
     26 C         -17.0560   -5.2622  -25.3023 C.2     1  UNL1        0.2162
     27 O         -16.4452   -4.2021  -25.3573 O.2     1  UNL1       -0.2755
     28 C         -21.9086   -3.4918  -24.9491 C.2     1  UNL1        0.2372
     29 O         -22.5430   -2.6036  -25.5232 O.2     1  UNL1       -0.2852
     30 C         -22.2259   -3.7548  -23.4265 C.2     1  UNL1        0.2817
     31 O         -21.3466   -3.8040  -22.5652 O.2     1  UNL1       -0.2670
     32 N         -23.5508   -3.8667  -23.2236 N.am    1  UNL1       -0.3048
     33 C         -24.1821   -4.2273  -21.9549 C.3     1  UNL1        0.0372
     34 C         -24.2973   -5.7268  -21.6763 C.ar    1  UNL1       -0.0303
     35 C         -24.0124   -6.6956  -22.6499 C.ar    1  UNL1       -0.0571
     36 C         -24.1417   -8.0489  -22.3504 C.ar    1  UNL1       -0.0615
     37 C         -24.5450   -8.4393  -21.0770 C.ar    1  UNL1       -0.0617
     38 C         -24.8238   -7.4880  -20.1002 C.ar    1  UNL1       -0.0615
     39 C         -24.7007   -6.1340  -20.4017 C.ar    1  UNL1       -0.0571
     40 H         -25.1507   -2.7735  -31.3650 H       1  UNL1        0.0232
     41 H         -24.3976   -2.4785  -32.9428 H       1  UNL1        0.0232
     42 H         -24.5872   -4.1214  -32.3677 H       1  UNL1        0.0232
     43 H         -22.7740   -2.0392  -31.1039 H       1  UNL1        0.0296
     44 H         -20.9442   -3.1617  -32.1523 H       1  UNL1        0.0232
     45 H         -21.9489   -4.5189  -32.6747 H       1  UNL1        0.0232
     46 H         -22.1407   -2.9385  -33.3964 H       1  UNL1        0.0232
     47 H         -23.5677   -4.8300  -30.2282 H       1  UNL1        0.0290
     48 H         -23.5500   -3.3553  -29.3331 H       1  UNL1        0.0290
     49 H         -20.9457   -3.4341  -29.4937 H       1  UNL1        0.0595
     50 H         -21.6670   -5.7648  -30.9791 H       1  UNL1        0.1498
     51 H         -18.5432   -6.8034  -31.6723 H       1  UNL1        0.0669
     52 H         -21.3075   -7.9569  -30.9861 H       1  UNL1        0.0625
     53 H         -18.5220   -7.9315  -33.5703 H       1  UNL1        0.0623
     54 H         -18.2418   -9.6895  -35.2544 H       1  UNL1        0.0618
     55 H         -19.6681  -11.7025  -35.1946 H       1  UNL1        0.0618
     56 H         -21.3845  -11.9652  -33.4369 H       1  UNL1        0.0618
     57 H         -21.6979  -10.2057  -31.7466 H       1  UNL1        0.0623
     58 H         -20.4532   -3.3371  -27.3799 H       1  UNL1        0.1495
     59 H         -21.2839   -5.4712  -25.4624 H       1  UNL1        0.0583
     60 H         -19.4285   -4.4148  -24.0252 H       1  UNL1        0.0295
     61 H         -19.0524   -3.3846  -25.3717 H       1  UNL1        0.0295
     62 H         -18.5672   -5.4703  -26.7584 H       1  UNL1        0.0395
     63 H         -19.5527   -7.4364  -25.7781 H       1  UNL1        0.0288
     64 H         -19.2676   -6.8454  -24.1552 H       1  UNL1        0.0288
     65 H         -17.2577   -8.1380  -26.0041 H       1  UNL1        0.0462
     66 H         -17.4122   -8.2546  -24.2445 H       1  UNL1        0.0462
     67 H         -15.5631   -6.6004  -24.8019 H       1  UNL1        0.1487
     68 H         -24.1752   -3.8042  -24.0250 H       1  UNL1        0.1494
     69 H         -25.1873   -3.8053  -21.9384 H       1  UNL1        0.0512
     70 H         -23.6555   -3.7540  -21.1237 H       1  UNL1        0.0512
     71 H         -23.7012   -6.4139  -23.6458 H       1  UNL1        0.0621
     72 H         -23.9234   -8.7903  -23.1054 H       1  UNL1        0.0618
     73 H         -24.6456   -9.4902  -20.8448 H       1  UNL1        0.0618
     74 H         -25.1367   -7.7991  -19.1144 H       1  UNL1        0.0618
     75 H         -24.9251   -5.3983  -19.6466 H       1  UNL1        0.0621
@<TRIPOS>BOND
     1     1     2    1
     2     1    40    1
     3     1    41    1
     4     1    42    1
     5     2     3    1
     6     2     4    1
     7     2    43    1
     8     3    44    1
     9     3    45    1
    10     3    46    1
    11     4     5    1
    12     4    47    1
    13     4    48    1
    14     5     6    1
    15     5    17    1
    16     5    49    1
    17     6     7   am
    18     6    50    1
    19     7     8    2
    20     7     9    1
    21     9    10    2
    22     9    51    1
    23    10    11    1
    24    10    52    1
    25    11    16   ar
    26    11    12   ar
    27    12    13   ar
    28    12    53    1
    29    13    14   ar
    30    13    54    1
    31    14    15   ar
    32    14    55    1
    33    15    16   ar
    34    15    56    1
    35    16    57    1
    36    17    18    2
    37    17    19   am
    38    19    20    1
    39    19    58    1
    40    20    21    1
    41    20    28    1
    42    20    59    1
    43    21    22    1
    44    21    60    1
    45    21    61    1
    46    22    26    1
    47    22    23    1
    48    22    62    1
    49    23    24    1
    50    23    63    1
    51    23    64    1
    52    24    25    1
    53    24    65    1
    54    24    66    1
    55    25    26   am
    56    25    67    1
    57    26    27    2
    58    28    29    2
    59    28    30    1
    60    30    31    2
    61    30    32   am
    62    32    33    1
    63    32    68    1
    64    33    34    1
    65    33    69    1
    66    33    70    1
    67    34    39   ar
    68    34    35   ar
    69    35    36   ar
    70    35    71    1
    71    36    37   ar
    72    36    72    1
    73    37    38   ar
    74    37    73    1
    75    38    39   ar
    76    38    74    1
    77    39    75    1
