@<TRIPOS>MOLECULE
*****
 78 81 0 0 0
SMALL
GASTEIGER
****
Schrodinger Suite 2019-4.
@<TRIPOS>ATOM
      1 C         -21.1911   -7.3668  -30.7652 C.3     1  UNL1       -0.0626
      2 C         -20.7575   -5.9224  -31.0490 C.3     1  UNL1       -0.0446
      3 C         -19.5929   -5.9483  -32.0385 C.3     1  UNL1       -0.0626
      4 C         -20.4025   -5.1454  -29.7566 C.3     1  UNL1       -0.0236
      5 C         -21.5824   -4.9835  -28.7714 C.3     1  UNL1        0.0997
      6 N         -22.6584   -4.2759  -29.4585 N.am    1  UNL1       -0.3012
      7 C         -23.9194   -4.1897  -29.0183 C.2     1  UNL1        0.2513
      8 O         -24.2892   -4.6169  -27.9249 O.2     1  UNL1       -0.2721
      9 C         -24.9325   -3.5960  -29.9809 C.3     1  UNL1        0.1652
     10 O         -24.4424   -2.3948  -30.5448 O.3     1  UNL1       -0.4828
     11 C         -25.2739   -1.7605  -31.4383 C.ar    1  UNL1        0.1213
     12 C         -25.1066   -0.3832  -31.5854 C.ar    1  UNL1       -0.0182
     13 C         -25.8769    0.3367  -32.5189 C.ar    1  UNL1       -0.0372
     14 C         -26.7901   -0.2931  -33.3742 C.ar    1  UNL1        0.0294
     15 C         -27.0498   -1.6616  -33.1361 C.ar    1  UNL1       -0.0372
     16 C         -26.2891   -2.3868  -32.1963 C.ar    1  UNL1       -0.0182
     17 N         -27.4693    0.4477  -34.3668 N.pl3   1  UNL1       -0.3360
     18 C         -28.7063   -0.0559  -34.8364 C.3     1  UNL1        0.0004
     19 C         -26.8754    1.4166  -35.2666 C.3     1  UNL1        0.0004
     20 C         -21.1509   -4.2028  -27.5239 C.2     1  UNL1        0.2339
     21 O         -20.9497   -2.9967  -27.5867 O.2     1  UNL1       -0.2738
     22 N         -21.0312   -4.9002  -26.3853 N.am    1  UNL1       -0.3037
     23 C         -20.7265   -4.3643  -25.0544 C.3     1  UNL1        0.0888
     24 C         -21.7502   -3.3090  -24.5964 C.3     1  UNL1       -0.0160
     25 C         -23.1917   -3.8006  -24.3884 C.3     1  UNL1        0.0390
     26 C         -24.2031   -2.6497  -24.2918 C.3     1  UNL1       -0.0262
     27 C         -25.1356   -2.9928  -23.1300 C.3     1  UNL1        0.0123
     28 N         -24.4359   -4.0226  -22.4004 N.am    1  UNL1       -0.3151
     29 C         -23.3989   -4.5243  -23.0660 C.2     1  UNL1        0.2162
     30 O         -22.6872   -5.4456  -22.6772 O.2     1  UNL1       -0.2755
     31 C         -19.2654   -3.8562  -24.9757 C.2     1  UNL1        0.2079
     32 O         -18.9761   -2.6639  -24.8842 O.2     1  UNL1       -0.2879
     33 C         -18.1809   -4.8723  -25.0293 C.ar    1  UNL1        0.1465
     34 N         -16.8677   -4.6199  -25.1177 N.ar    1  UNL1       -0.2360
     35 C         -16.1639   -5.8207  -25.0595 C.ar    1  UNL1        0.0790
     36 C         -14.7686   -5.9911  -25.0976 C.ar    1  UNL1       -0.0352
     37 C         -14.1819   -7.2623  -24.9520 C.ar    1  UNL1       -0.0597
     38 C         -14.9849   -8.4083  -24.8227 C.ar    1  UNL1       -0.0606
     39 C         -16.3812   -8.2769  -24.8312 C.ar    1  UNL1       -0.0459
     40 C         -16.9528   -6.9994  -24.9391 C.ar    1  UNL1        0.0396
     41 S         -18.6397   -6.5812  -24.9524 S.2     1  UNL1       -0.0643
     42 H         -22.1199   -7.4086  -30.1985 H       1  UNL1        0.0232
     43 H         -21.3612   -7.9114  -31.6935 H       1  UNL1        0.0232
     44 H         -20.4277   -7.9067  -30.2058 H       1  UNL1        0.0232
     45 H         -21.5790   -5.4126  -31.5529 H       1  UNL1        0.0296
     46 H         -19.1931   -4.9574  -32.2346 H       1  UNL1        0.0232
     47 H         -18.7973   -6.5769  -31.6463 H       1  UNL1        0.0232
     48 H         -19.8980   -6.3814  -32.9908 H       1  UNL1        0.0232
     49 H         -20.0519   -4.1568  -30.0363 H       1  UNL1        0.0290
     50 H         -19.5637   -5.6343  -29.2584 H       1  UNL1        0.0290
     51 H         -21.9397   -5.9652  -28.4585 H       1  UNL1        0.0594
     52 H         -22.4377   -3.8670  -30.3543 H       1  UNL1        0.1496
     53 H         -25.8547   -3.4004  -29.4358 H       1  UNL1        0.0795
     54 H         -25.1076   -4.3466  -30.7500 H       1  UNL1        0.0795
     55 H         -24.4028    0.1224  -30.9426 H       1  UNL1        0.0655
     56 H         -25.8040    1.4026  -32.5610 H       1  UNL1        0.0637
     57 H         -27.7830   -2.2005  -33.7170 H       1  UNL1        0.0637
     58 H         -26.4779   -3.4405  -32.1225 H       1  UNL1        0.0655
     59 H         -29.3356    0.7413  -35.2345 H       1  UNL1        0.0428
     60 H         -28.4955   -0.7778  -35.6169 H       1  UNL1        0.0428
     61 H         -29.1869   -0.5111  -33.9764 H       1  UNL1        0.0428
     62 H         -27.5501    2.2466  -35.4696 H       1  UNL1        0.0428
     63 H         -25.9653    1.8153  -34.8615 H       1  UNL1        0.0428
     64 H         -26.6821    0.9529  -36.2303 H       1  UNL1        0.0428
     65 H         -21.2151   -5.8931  -26.4352 H       1  UNL1        0.1495
     66 H         -20.8273   -5.1955  -24.3601 H       1  UNL1        0.0582
     67 H         -21.7851   -2.4998  -25.3135 H       1  UNL1        0.0295
     68 H         -21.3879   -2.8970  -23.6567 H       1  UNL1        0.0295
     69 H         -23.4877   -4.4722  -25.1945 H       1  UNL1        0.0395
     70 H         -24.7698   -2.5620  -25.2124 H       1  UNL1        0.0288
     71 H         -23.7090   -1.6965  -24.1131 H       1  UNL1        0.0288
     72 H         -26.0566   -3.4227  -23.5110 H       1  UNL1        0.0462
     73 H         -25.3889   -2.1387  -22.5052 H       1  UNL1        0.0462
     74 H         -24.7509   -4.3583  -21.5015 H       1  UNL1        0.1487
     75 H         -14.1460   -5.1313  -25.2358 H       1  UNL1        0.0639
     76 H         -13.1063   -7.3607  -24.9516 H       1  UNL1        0.0618
     77 H         -14.5254   -9.3808  -24.7368 H       1  UNL1        0.0618
     78 H         -17.0121   -9.1477  -24.7424 H       1  UNL1        0.0629
@<TRIPOS>BOND
     1     1     2    1
     2     1    42    1
     3     1    43    1
     4     1    44    1
     5     2     3    1
     6     2     4    1
     7     2    45    1
     8     3    46    1
     9     3    47    1
    10     3    48    1
    11     4     5    1
    12     4    49    1
    13     4    50    1
    14     5     6    1
    15     5    20    1
    16     5    51    1
    17     6     7   am
    18     6    52    1
    19     7     8    2
    20     7     9    1
    21     9    10    1
    22     9    53    1
    23     9    54    1
    24    10    11    1
    25    11    16   ar
    26    11    12   ar
    27    12    13   ar
    28    12    55    1
    29    13    14   ar
    30    13    56    1
    31    14    15   ar
    32    14    17    1
    33    15    16   ar
    34    15    57    1
    35    16    58    1
    36    17    18    1
    37    17    19    1
    38    18    59    1
    39    18    60    1
    40    18    61    1
    41    19    62    1
    42    19    63    1
    43    19    64    1
    44    20    21    2
    45    20    22   am
    46    22    23    1
    47    22    65    1
    48    23    24    1
    49    23    31    1
    50    23    66    1
    51    24    25    1
    52    24    67    1
    53    24    68    1
    54    25    29    1
    55    25    26    1
    56    25    69    1
    57    26    27    1
    58    26    70    1
    59    26    71    1
    60    27    28    1
    61    27    72    1
    62    27    73    1
    63    28    29   am
    64    28    74    1
    65    29    30    2
    66    31    32    2
    67    31    33    1
    68    33    41   ar
    69    33    34   ar
    70    34    35   ar
    71    35    40   ar
    72    35    36   ar
    73    36    37   ar
    74    36    75    1
    75    37    38   ar
    76    37    76    1
    77    38    39   ar
    78    38    77    1
    79    39    40   ar
    80    39    78    1
    81    40    41   ar
