
                    3D
 Schrodinger Suite 2019-4.
 63 65  0  0  1  0            999 V2000
  -18.7446   -8.1261  -30.2481 C   0  0  0  0  0  0
  -20.2033   -7.6978  -30.0035 C   0  0  0  0  0  0
  -20.6170   -6.5442  -30.9470 C   0  0  0  0  0  0
  -21.1305   -8.8940  -30.2754 C   0  0  0  0  0  0
  -20.3700   -7.3389  -28.5920 N   0  0  0  0  0  0
  -19.9720   -6.2259  -27.9517 C   0  0  0  0  0  0
  -19.3699   -5.3025  -28.5018 O   0  0  0  0  0  0
  -20.3281   -6.1511  -26.4455 C   0  0  2  0  0  0
  -21.4555   -5.2335  -26.0913 N   0  0  0  0  0  0
  -21.8640   -5.1470  -24.7927 C   0  0  0  0  0  0
  -21.2998   -5.7791  -23.9038 O   0  0  0  0  0  0
  -23.0034   -4.2910  -24.3522 C   0  0  0  0  0  0
  -24.1159   -3.7532  -24.9517 C   0  0  0  0  0  0
  -24.8456   -3.0679  -23.9407 C   0  0  0  0  0  0
  -24.1537   -3.2555  -22.7848 C   0  0  0  0  0  0
  -23.0437   -3.9976  -23.0164 O   0  0  0  0  0  0
  -22.2895   -4.7896  -27.1510 C   0  0  0  0  0  0
  -23.2606   -5.6633  -27.6778 C   0  0  0  0  0  0
  -24.0617   -5.2517  -28.7551 C   0  0  0  0  0  0
  -23.9082   -3.9700  -29.3335 C   0  0  0  0  0  0
  -22.9217   -3.1040  -28.7960 C   0  0  0  0  0  0
  -22.1166   -3.5128  -27.7160 C   0  0  0  0  0  0
  -24.8297   -3.5603  -30.4961 C   0  0  0  0  0  0
  -24.4853   -2.1735  -31.0791 C   0  0  0  0  0  0
  -26.2862   -3.5235  -29.9917 C   0  0  0  0  0  0
  -24.7189   -4.5810  -31.6483 C   0  0  0  0  0  0
  -19.0161   -5.7726  -25.8133 C   0  0  0  0  0  0
  -18.1044   -6.7728  -25.4012 C   0  0  0  0  0  0
  -16.8424   -6.4183  -24.8941 C   0  0  0  0  0  0
  -16.5251   -5.0550  -24.8040 C   0  0  0  0  0  0
  -17.3776   -4.0774  -25.1642 N   0  0  0  0  0  0
  -18.5824   -4.4346  -25.6513 C   0  0  0  0  0  0
  -18.4901   -9.0138  -29.6682 H   0  0  0  0  0  0
  -18.5659   -8.3556  -31.2991 H   0  0  0  0  0  0
  -18.0429   -7.3499  -29.9550 H   0  0  0  0  0  0
  -21.6145   -6.1729  -30.7081 H   0  0  0  0  0  0
  -19.9303   -5.7002  -30.9036 H   0  0  0  0  0  0
  -20.6322   -6.8739  -31.9861 H   0  0  0  0  0  0
  -22.1740   -8.6362  -30.0880 H   0  0  0  0  0  0
  -21.0566   -9.2246  -31.3119 H   0  0  0  0  0  0
  -20.8832   -9.7484  -29.6449 H   0  0  0  0  0  0
  -20.8350   -8.0342  -28.0237 H   0  0  0  0  0  0
  -20.6161   -7.1516  -26.1212 H   0  0  0  0  0  0
  -24.3985   -3.8246  -25.9904 H   0  0  0  0  0  0
  -25.7645   -2.5125  -24.0398 H   0  0  0  0  0  0
  -24.3032   -2.9470  -21.7631 H   0  0  0  0  0  0
  -23.3896   -6.6510  -27.2592 H   0  0  0  0  0  0
  -24.8028   -5.9377  -29.1329 H   0  0  0  0  0  0
  -22.7576   -2.1156  -29.1953 H   0  0  0  0  0  0
  -21.3568   -2.8567  -27.3249 H   0  0  0  0  0  0
  -25.1710   -1.9120  -31.8841 H   0  0  0  0  0  0
  -24.5622   -1.3839  -30.3342 H   0  0  0  0  0  0
  -23.4757   -2.1475  -31.4912 H   0  0  0  0  0  0
  -26.9760   -3.2057  -30.7748 H   0  0  0  0  0  0
  -26.6177   -4.5003  -29.6424 H   0  0  0  0  0  0
  -26.3937   -2.8361  -29.1532 H   0  0  0  0  0  0
  -25.3700   -4.3051  -32.4775 H   0  0  0  0  0  0
  -23.7004   -4.6383  -32.0340 H   0  0  0  0  0  0
  -25.0103   -5.5858  -31.3454 H   0  0  0  0  0  0
  -18.3615   -7.8174  -25.5010 H   0  0  0  0  0  0
  -16.1262   -7.1720  -24.6005 H   0  0  0  0  0  0
  -15.5561   -4.7448  -24.4521 H   0  0  0  0  0  0
  -19.2132   -3.6183  -25.9648 H   0  0  0  0  0  0
  1  2  1  0  0  0
  1 33  1  0  0  0
  1 34  1  0  0  0
  1 35  1  0  0  0
  2  3  1  0  0  0
  2  4  1  0  0  0
  2  5  1  0  0  0
  3 36  1  0  0  0
  3 37  1  0  0  0
  3 38  1  0  0  0
  4 39  1  0  0  0
  4 40  1  0  0  0
  4 41  1  0  0  0
  5  6  1  0  0  0
  5 42  1  0  0  0
  6  7  2  0  0  0
  6  8  1  0  0  0
  8  9  1  0  0  0
  8 27  1  0  0  0
  8 43  1  0  0  0
  9 10  1  0  0  0
  9 17  1  0  0  0
 10 11  2  0  0  0
 10 12  1  0  0  0
 12 16  1  0  0  0
 12 13  2  0  0  0
 13 14  1  0  0  0
 13 44  1  0  0  0
 14 15  2  0  0  0
 14 45  1  0  0  0
 15 16  1  0  0  0
 15 46  1  0  0  0
 17 22  1  0  0  0
 17 18  2  0  0  0
 18 19  1  0  0  0
 18 47  1  0  0  0
 19 20  2  0  0  0
 19 48  1  0  0  0
 20 21  1  0  0  0
 20 23  1  0  0  0
 21 22  2  0  0  0
 21 49  1  0  0  0
 22 50  1  0  0  0
 23 24  1  0  0  0
 23 25  1  0  0  0
 23 26  1  0  0  0
 24 51  1  0  0  0
 24 52  1  0  0  0
 24 53  1  0  0  0
 25 54  1  0  0  0
 25 55  1  0  0  0
 25 56  1  0  0  0
 26 57  1  0  0  0
 26 58  1  0  0  0
 26 59  1  0  0  0
 27 32  1  0  0  0
 27 28  2  0  0  0
 28 29  1  0  0  0
 28 60  1  0  0  0
 29 30  2  0  0  0
 29 61  1  0  0  0
 30 31  1  0  0  0
 30 62  1  0  0  0
 31 32  2  0  0  0
 32 63  1  0  0  0
M  END
$$$$
