@<TRIPOS>MOLECULE
*****
 63 65 0 0 0
SMALL
GASTEIGER
****
Schrodinger Suite 2019-4.
@<TRIPOS>ATOM
      1 C         -18.7446   -8.1261  -30.2481 C.3     1  UNL1       -0.0442
      2 C         -20.2033   -7.6978  -30.0035 C.3     1  UNL1        0.0262
      3 C         -20.6170   -6.5442  -30.9470 C.3     1  UNL1       -0.0442
      4 C         -21.1305   -8.8940  -30.2754 C.3     1  UNL1       -0.0442
      5 N         -20.3700   -7.3389  -28.5920 N.am    1  UNL1       -0.3087
      6 C         -19.9720   -6.2259  -27.9517 C.2     1  UNL1        0.2389
      7 O         -19.3699   -5.3025  -28.5018 O.2     1  UNL1       -0.2734
      8 C         -20.3281   -6.1511  -26.4455 C.3     1  UNL1        0.1338
      9 N         -21.4555   -5.2335  -26.0913 N.am    1  UNL1       -0.2488
     10 C         -21.8640   -5.1470  -24.7927 C.2     1  UNL1        0.2870
     11 O         -21.2998   -5.7791  -23.9038 O.2     1  UNL1       -0.2662
     12 C         -23.0034   -4.2910  -24.3522 C.ar    1  UNL1        0.1896
     13 C         -24.1159   -3.7532  -24.9517 C.ar    1  UNL1       -0.0113
     14 C         -24.8456   -3.0679  -23.9407 C.ar    1  UNL1       -0.0231
     15 C         -24.1537   -3.2555  -22.7848 C.ar    1  UNL1        0.0928
     16 O         -23.0437   -3.9976  -23.0164 O.2     1  UNL1       -0.4583
     17 C         -22.2895   -4.7896  -27.1510 C.ar    1  UNL1        0.0379
     18 C         -23.2606   -5.6633  -27.6778 C.ar    1  UNL1       -0.0400
     19 C         -24.0617   -5.2517  -28.7551 C.ar    1  UNL1       -0.0563
     20 C         -23.9082   -3.9700  -29.3335 C.ar    1  UNL1       -0.0419
     21 C         -22.9217   -3.1040  -28.7960 C.ar    1  UNL1       -0.0563
     22 C         -22.1166   -3.5128  -27.7160 C.ar    1  UNL1       -0.0400
     23 C         -24.8297   -3.5603  -30.4961 C.3     1  UNL1       -0.0127
     24 C         -24.4853   -2.1735  -31.0791 C.3     1  UNL1       -0.0560
     25 C         -26.2862   -3.5235  -29.9917 C.3     1  UNL1       -0.0560
     26 C         -24.7189   -4.5810  -31.6483 C.3     1  UNL1       -0.0560
     27 C         -19.0161   -5.7726  -25.8133 C.ar    1  UNL1        0.0002
     28 C         -18.1044   -6.7728  -25.4012 C.ar    1  UNL1       -0.0534
     29 C         -16.8424   -6.4183  -24.8941 C.ar    1  UNL1       -0.0433
     30 C         -16.5251   -5.0550  -24.8040 C.ar    1  UNL1        0.0276
     31 N         -17.3776   -4.0774  -25.1642 N.ar    1  UNL1       -0.2629
     32 C         -18.5824   -4.4346  -25.6513 C.ar    1  UNL1        0.0330
     33 H         -18.4901   -9.0138  -29.6682 H       1  UNL1        0.0250
     34 H         -18.5659   -8.3556  -31.2991 H       1  UNL1        0.0250
     35 H         -18.0429   -7.3499  -29.9550 H       1  UNL1        0.0250
     36 H         -21.6145   -6.1729  -30.7081 H       1  UNL1        0.0250
     37 H         -19.9303   -5.7002  -30.9036 H       1  UNL1        0.0250
     38 H         -20.6322   -6.8739  -31.9861 H       1  UNL1        0.0250
     39 H         -22.1740   -8.6362  -30.0880 H       1  UNL1        0.0250
     40 H         -21.0566   -9.2246  -31.3119 H       1  UNL1        0.0250
     41 H         -20.8832   -9.7484  -29.6449 H       1  UNL1        0.0250
     42 H         -20.8350   -8.0342  -28.0237 H       1  UNL1        0.1493
     43 H         -20.6161   -7.1516  -26.1212 H       1  UNL1        0.0652
     44 H         -24.3985   -3.8246  -25.9904 H       1  UNL1        0.0657
     45 H         -25.7645   -2.5125  -24.0398 H       1  UNL1        0.0649
     46 H         -24.3032   -2.9470  -21.7631 H       1  UNL1        0.1029
     47 H         -23.3896   -6.6510  -27.2592 H       1  UNL1        0.0636
     48 H         -24.8028   -5.9377  -29.1329 H       1  UNL1        0.0621
     49 H         -22.7576   -2.1156  -29.1953 H       1  UNL1        0.0621
     50 H         -21.3568   -2.8567  -27.3249 H       1  UNL1        0.0636
     51 H         -25.1710   -1.9120  -31.8841 H       1  UNL1        0.0238
     52 H         -24.5622   -1.3839  -30.3342 H       1  UNL1        0.0238
     53 H         -23.4757   -2.1475  -31.4912 H       1  UNL1        0.0238
     54 H         -26.9760   -3.2057  -30.7748 H       1  UNL1        0.0238
     55 H         -26.6177   -4.5003  -29.6424 H       1  UNL1        0.0238
     56 H         -26.3937   -2.8361  -29.1532 H       1  UNL1        0.0238
     57 H         -25.3700   -4.3051  -32.4775 H       1  UNL1        0.0238
     58 H         -23.7004   -4.6383  -32.0340 H       1  UNL1        0.0238
     59 H         -25.0103   -5.5858  -31.3454 H       1  UNL1        0.0238
     60 H         -18.3615   -7.8174  -25.5010 H       1  UNL1        0.0622
     61 H         -16.1262   -7.1720  -24.6005 H       1  UNL1        0.0633
     62 H         -15.5561   -4.7448  -24.4521 H       1  UNL1        0.0829
     63 H         -19.2132   -3.6183  -25.9648 H       1  UNL1        0.0833
@<TRIPOS>BOND
     1     1     2    1
     2     1    33    1
     3     1    34    1
     4     1    35    1
     5     2     3    1
     6     2     4    1
     7     2     5    1
     8     3    36    1
     9     3    37    1
    10     3    38    1
    11     4    39    1
    12     4    40    1
    13     4    41    1
    14     5     6   am
    15     5    42    1
    16     6     7    2
    17     6     8    1
    18     8     9    1
    19     8    27    1
    20     8    43    1
    21     9    10   am
    22     9    17    1
    23    10    11    2
    24    10    12    1
    25    12    16   ar
    26    12    13   ar
    27    13    14   ar
    28    13    44    1
    29    14    15   ar
    30    14    45    1
    31    15    16   ar
    32    15    46    1
    33    17    22   ar
    34    17    18   ar
    35    18    19   ar
    36    18    47    1
    37    19    20   ar
    38    19    48    1
    39    20    21   ar
    40    20    23    1
    41    21    22   ar
    42    21    49    1
    43    22    50    1
    44    23    24    1
    45    23    25    1
    46    23    26    1
    47    24    51    1
    48    24    52    1
    49    24    53    1
    50    25    54    1
    51    25    55    1
    52    25    56    1
    53    26    57    1
    54    26    58    1
    55    26    59    1
    56    27    32   ar
    57    27    28   ar
    58    28    29   ar
    59    28    60    1
    60    29    30   ar
    61    29    61    1
    62    30    31   ar
    63    30    62    1
    64    31    32   ar
    65    32    63    1
